100
-131.98304140
C         -1.63943        3.77478       -1.46938
C         -2.37529        2.50744       -1.51437
C         -0.24643        3.49427       -1.52757
C         -0.04408        2.02311       -1.60618
C          1.12700        1.43196       -2.31237
C         -1.42497        1.43362       -1.56995
C         -1.82919        0.02679       -1.98547
C         -0.87481       -0.68368       -2.92237
Cl         0.97139       -0.45988        2.78533
Cl        -1.80773       -1.88344        2.29099
C          3.24691        0.40453       -3.82645
C          2.50680        1.46399       -4.31329
C          2.94557       -0.13176       -2.58286
C          1.47318        1.97445       -3.56902
C          1.89781        0.35119       -1.83484
H         -3.45871        2.40290       -1.59183
H          0.54770        4.23949       -1.61687
H          0.03981       -0.96211       -2.39963
H         -1.30952       -1.60228       -3.32378
H         -0.60118       -0.04935       -3.76899
H          4.06739        0.00777       -4.40172
H          2.74299        1.89024       -5.27487
H          3.56593       -0.92117       -2.19228
H          0.89102        2.79577       -3.95011
H         -2.09005        4.77082       -1.47699
P          1.75440       -0.30129       -0.15259
H         -2.80568        0.10441       -2.48038
P         -2.14760       -1.00507       -0.49881
H         -3.43702       -3.02615       -0.30790
C         -1.66389       -3.73519       -1.28459
C         -2.73065       -2.66508       -1.05607
C         -1.19653       -4.33939        0.04189
H         -3.18667        0.79161        0.63894
C         -4.88994       -0.06725       -0.35068
C         -3.55258       -0.20295        0.39442
H         -4.66739        0.20035       -1.39813
C         -5.70161       -1.36546       -0.35213
H          3.60264       -1.82454       -0.38110
H          2.53877        0.79608        1.86189
C          3.53767        3.27617        1.17177
C          2.70841        2.29676        0.32164
C          2.86591        0.85329        0.81864
C          4.35060        0.45519        0.76541
C          5.21726        1.42162        1.59967
C          5.02608        2.88147        1.14527
H          3.17327        3.25698        2.20634
H          3.39677        4.31032        0.82749
H          3.05423        2.34652       -0.71828
H          1.65137        2.58064        0.28483
H          4.49234       -0.57651        1.10940
H          4.68242        0.46835       -0.27950
H          4.94004        1.33259        2.65751
H          6.27683        1.13391        1.54976
H          5.41480        2.99839        0.12580
H          5.62169        3.56506        1.76680
C          2.67365       -4.30773       -1.07006
C          1.92118       -2.96140       -1.05776
C          2.56238       -1.98054       -0.07371
C          2.57801       -2.58643        1.33757
C          3.35702       -3.91561        1.35247
C          2.75425       -4.91511        0.34564
H          3.68817       -4.15168       -1.45714
H          2.19775       -5.00993       -1.76888
H          0.88907       -3.12319       -0.73982
H          1.85751       -2.52648       -2.06413
H          2.98145       -1.87261        2.06741
H          1.54620       -2.77139        1.65751
H          4.40569       -3.72463        1.09304
H          3.37752       -4.34299        2.36476
H          1.74994       -5.20202        0.67937
H          3.33390       -5.84902        0.33334
H         -0.81054       -3.24780       -1.78457
C         -2.18360       -4.83589       -2.21470
H         -3.70204       -0.72452        1.33969
C         -5.72212        1.06788        0.25688
H         -3.29491       -2.49091       -1.97429
H         -0.80154       -3.58312        0.71927
H         -0.42635       -5.09563       -0.11330
H         -2.02760       -4.82484        0.55417
H         -1.42236       -5.59587       -2.39827
H         -3.04719       -5.33458       -1.77356
H         -2.49399       -4.43280       -3.18010
H         -5.22370       -2.15578       -0.92771
H         -5.84462       -1.73195        0.66486
H         -6.69150       -1.21007       -0.78446
H         -5.94197        0.86261        1.30500
H         -5.19674        2.02262        0.21163
H         -6.67429        1.18867       -0.26207
Fe        -1.08085        2.65146        0.09852
C         -2.43409        3.05752        1.59474
C         -1.58746        4.20650        1.33201
C         -0.20861        3.81028        1.54765
C         -0.20860        2.41859        1.95237
C         -1.57902        1.95510        1.98849
H         -3.52611        3.05208        1.57872
H         -1.93152        5.20855        1.06442
H          0.66423        4.46388        1.47806
H          0.65202        1.83665        2.28076
H         -1.89781        0.97079        2.33870
Pd        -0.29495       -0.85290        0.95344
