111
-148.55737167
P         -2.53617        2.25703        0.36778
P          0.00618        0.36859        0.44429
C         -1.68081        1.95699        1.93851
C         -0.56245        1.15391        1.96247
C         -3.22476        3.97571        0.34525
C         -2.83856        4.70261       -0.92382
C         -2.14402        2.52480        3.10861
H         -3.02720        3.14190        3.08872
C         -1.47802        2.29168        4.29948
H         -1.83881        2.73590        5.21279
C         -0.35325        1.48976        4.31899
H          0.16560        1.30771        5.24574
C          0.10369        0.91559        3.14648
H          0.97760        0.28331        3.14590
Pd        -1.14669        1.41955       -1.27968
Cl        -2.57322        2.16079       -2.83638
Cl         0.28511        0.39180       -2.67174
C         -4.74236        3.73947        0.49337
C         -4.09420        1.27313        0.19844
H         -3.24552        4.19100       -1.79726
H         -3.22233        5.72557       -0.93364
H         -1.75341        4.74594       -1.04329
H         -5.29048        4.54447       -0.01775
H         -5.03156        3.81109        1.55216
H         -3.96466        0.62933       -0.68183
C         -5.16657        2.35095       -0.06257
C         -4.34096        0.43544        1.43460
H         -2.81442        4.49664        1.22073
H         -6.12219        2.03217        0.37847
H         -5.35336        2.43553       -1.14329
H         -4.44432        1.07151        2.31559
H         -5.25588       -0.15485        1.34353
H         -3.51175       -0.25176        1.62068
C         -1.18584       -4.03159        0.40925
C         -0.22399       -3.56326        1.34032
C          0.12567       -2.22316        1.30394
C         -0.49815       -1.35164        0.44939
C         -1.51181       -1.77873       -0.36822
C         -1.90221       -3.10654       -0.39155
O         -1.40443       -5.42617        0.25204
C          0.45196       -4.48579        2.36723
H          0.90545       -1.84155        1.94021
H         -1.98847       -1.06356       -1.01349
C         -3.05540       -3.52911       -1.31512
C          4.49519        0.76756       -0.21936
C          3.80538       -0.37878       -0.68932
C          2.43981       -0.45475       -0.47375
C          1.77731        0.51505        0.23116
C          2.45495        1.57728        0.77020
C          3.82355        1.71030        0.60105
O          5.84474        0.99179       -0.60094
C          4.49835       -1.51097       -1.46303
H          1.86353       -1.26967       -0.87718
H          1.89401        2.30985        1.32416
C          4.55097        2.88014        1.28259
C          0.81874       -3.69878        3.64618
C         -0.49238       -5.62303        2.79781
C          1.73945       -5.06646        1.76370
C         -4.06614       -2.37340       -1.49458
C         -2.48799       -3.89964       -2.69378
C         -3.83456       -4.71723       -0.72281
C         -0.54766       -6.04195       -0.70154
H          1.17879       -4.37140        4.42437
H          1.60922       -2.97308        3.46090
H         -0.04933       -3.16857        4.03714
H         -0.03825       -6.23645        3.57560
H         -1.42666       -5.21922        3.18647
H         -0.73352       -6.27647        1.96318
H          2.23637       -5.73130        2.46976
H          1.53191       -5.63171        0.85832
H          2.43554       -4.26950        1.50512
H         -3.63809       -1.54693       -2.05983
H         -4.94608       -2.71071       -2.04174
H         -4.39854       -1.99630       -0.52802
H         -1.95864       -3.05351       -3.13148
H         -1.78618       -4.72700       -2.62182
H         -3.28391       -4.19124       -3.37848
H         -3.20815       -5.60203       -0.64182
H         -4.20247       -4.47584        0.27387
H         -4.68967       -4.97534       -1.34702
H         -1.14631       -6.49891       -1.48932
H          0.12723       -5.30500       -1.13890
H          0.03414       -6.82657       -0.21812
C          5.98852        1.73636       -1.80405
C          5.95819       -1.68648       -1.00746
C          3.78484       -2.85901       -1.21045
C          4.44343       -1.20091       -2.96665
C          5.99559        2.49618        1.65144
C          4.54968        4.09655        0.34456
C          3.84028        3.27080        2.59877
H          6.00602       -1.86351        0.06649
H          6.42714       -2.53105       -1.51175
H          6.55190       -0.80260       -1.22595
H          4.34354       -3.68220       -1.65515
H          3.69657       -3.05320       -0.14229
H          2.78732       -2.87825       -1.64680
H          4.95050       -0.26651       -3.19505
H          4.91683       -1.99246       -3.54686
H          3.41080       -1.10666       -3.30200
H          6.58884        2.28533        0.76517
H          6.48911        3.30227        2.19379
H          6.00744        1.60685        2.28068
H          5.06296        3.87565       -0.58818
H          3.53007        4.39293        0.09945
H          5.04675        4.94804        0.80861
H          3.71109        2.40102        3.24246
H          2.86084        3.70948        2.41424
H          4.42273        4.01008        3.14816
H          6.57242        2.63584       -1.60948
H          6.52052        1.13866       -2.54396
H          5.01011        2.01510       -2.19748
