59
-75.79815890
Cl         1.37577        0.50693        2.42388
P          1.46595        0.01709       -0.84401
P         -1.74520       -0.19631       -0.79250
C          0.43622        0.32909       -2.34905
H          0.13056        1.37773       -2.35614
H          1.05449        0.16279       -3.23678
C         -0.76745       -0.56923       -2.31274
H         -0.46437       -1.61889       -2.28038
H         -1.41460       -0.43786       -3.18551
C          2.62406       -1.38723       -1.19573
H          2.39343       -1.69159       -2.22609
C          2.68999        1.35622       -0.46644
H          2.37383        1.82506        0.47383
C         -3.09384       -1.42128       -0.46767
H         -3.17849       -1.49542        0.62357
C         -2.77141        1.32929       -1.05148
H         -2.59446        1.64639       -2.08624
C          4.01714       -0.72910       -1.13218
H          4.74875       -1.44772       -0.73580
H          4.36526       -0.49249       -2.14857
C          4.00484        0.57202       -0.28307
H          4.86250        1.20756       -0.54404
H          4.14060        0.31933        0.77864
C         -4.32986       -0.71367       -1.04583
H         -4.41569       -0.96453       -2.11242
H         -5.24778       -1.09872       -0.57527
C         -4.21939        0.82574       -0.87723
H         -4.56846        1.10308        0.12692
H         -4.89305        1.34578       -1.57484
C          2.44113       -2.58183       -0.26104
H          3.05664       -3.41656       -0.62507
H          1.40521       -2.93533       -0.33793
C          2.73692        2.40402       -1.57406
H          3.07530        1.92236       -2.50096
H          1.71721        2.75209       -1.78456
C         -2.81208       -2.79645       -1.05870
H         -3.72585       -3.40497       -1.00989
H         -2.59634       -2.68670       -2.12930
C         -2.40650        2.45315       -0.08384
H         -3.20438        3.20879       -0.10220
H         -2.41361        2.05204        0.93831
C          2.78069       -2.30400        1.19417
H          3.83043       -2.03446        1.31876
H          2.59196       -3.17137        1.83100
H          2.18954       -1.47910        1.58855
C          3.61952        3.59899       -1.24038
H          3.60606        4.35054       -2.03316
H          4.65941        3.30501       -1.09134
H          3.28868        4.08661       -0.32139
C         -1.67187       -3.51103       -0.35125
H         -1.91039       -3.69177        0.69865
H         -0.76302       -2.90982       -0.36854
H         -1.44126       -4.47575       -0.80875
C         -1.07051        3.11546       -0.38405
H         -0.85207        3.92902        0.31142
H         -0.24697        2.40530       -0.31523
H         -1.05381        3.53273       -1.39262
Cl        -1.75057       -0.28174        2.37166
Pd        -0.12360       -0.02972        0.84161
