59
-75.80075375
Cl         1.68756        0.48479        2.38278
P          1.62512       -0.08716       -0.82815
P         -1.54032       -0.20937       -0.73666
C          0.62712        0.04033       -2.37983
H          0.37296        1.08816       -2.55197
H          1.24567       -0.28571       -3.22202
C         -0.61633       -0.78903       -2.22771
H         -0.36116       -1.84230       -2.09213
H         -1.27393       -0.71689       -3.09955
C          2.77027       -1.53172       -0.98463
H          2.38150       -2.18126       -1.77888
C          2.87038        1.27200       -0.60548
H          2.74845        1.62757        0.42562
C         -3.02660       -1.23242       -0.30016
H         -2.93902       -1.45309        0.77134
C         -2.37154        1.39580       -1.12475
H         -1.88760        1.81804       -2.01396
C          4.08635       -0.84995       -1.40921
H          4.94087       -1.48822       -1.13901
H          4.11884       -0.75857       -2.50541
C          4.23091        0.55853       -0.77141
H          4.90238        1.18505       -1.37562
H          4.72426        0.46506        0.20715
C         -4.21630       -0.28052       -0.56152
H         -5.03270       -0.83687       -1.04368
H         -4.63016        0.06956        0.39548
C         -3.81455        0.94649       -1.42549
H         -4.51248        1.77997       -1.26137
H         -3.90684        0.68774       -2.49109
C          2.88022       -2.30884        0.32463
H          3.05692       -1.59586        1.14102
H          3.77880       -2.94087        0.29308
C          2.65071        2.43830       -1.56352
H          3.54748        3.07353       -1.57043
H          2.56850        2.04717       -2.58579
C         -3.09332       -2.54319       -1.07876
H         -4.10863       -2.95679       -1.00196
H         -2.95026       -2.32985       -2.14585
C         -2.24856        2.35760        0.05316
H         -2.77605        1.92685        0.91486
H         -1.19694        2.41437        0.36518
C          1.66182       -3.16961        0.62317
H          0.75500       -2.56966        0.69268
H          1.76476       -3.71145        1.56603
H          1.49781       -3.90794       -0.16404
C          1.43397        3.27896       -1.20297
H          1.26485        4.08648       -1.91884
H          1.54763        3.73298       -0.21663
H          0.52676        2.67629       -1.16760
C         -2.08671       -3.57551       -0.59231
H         -1.06670       -3.19615       -0.64365
H         -2.12518       -4.49566       -1.17977
H         -2.27055       -3.84360        0.44994
C         -2.77023        3.75552       -0.24707
H         -2.64223        4.42968        0.60292
H         -2.24567        4.19651       -1.09686
H         -3.83261        3.74449       -0.49495
Cl        -1.56291       -0.09942        2.41488
Pd         0.08836       -0.01472        0.89674
