87
-129.17850265
P         -1.84102       -0.35576        0.23553
P          1.46683        0.25807       -0.10012
C         -1.54236        1.10433       -0.79426
C          1.05703       -0.55535       -1.64978
C         -0.72328        1.15385       -1.92007
C         -0.52254        2.39357       -2.55725
C         -1.15361        3.52236       -2.06389
C         -1.95904        3.45598       -0.94848
C         -2.14456        2.24349       -0.31282
C          1.79614       -1.62529       -2.09091
C          1.48501       -2.22929       -3.29327
C          0.43074       -1.75470       -4.04635
C         -0.32669       -0.67616       -3.61907
C          0.00088       -0.05239       -2.39872
Cl         1.45297        1.07100        3.03919
Cl        -1.24105       -0.65093        3.42820
H         -2.43449        4.34502       -0.56788
H         -2.75641        2.18128        0.57506
H          2.62272       -1.98288       -1.50003
H          2.06149       -3.07149       -3.63927
H         -0.99706        4.46591       -2.55875
H          0.18150       -2.22854       -4.98061
C         -0.83954       -4.48203       -1.39198
C         -0.36242       -4.10104       -0.14587
C         -0.69398       -2.83852        0.33098
C         -1.46195       -1.98315       -0.42594
C         -1.96279       -2.38456       -1.64133
C         -1.64542       -3.63786       -2.13031
H         -0.58137       -5.45438       -1.77566
C          0.49655       -5.02036        0.64960
H         -0.38404       -2.53791        1.31776
H         -2.58650       -1.71172       -2.20697
H         -2.01930       -3.95096       -3.09131
C         -6.27376       -0.31389        1.26828
C         -5.34856       -0.48607        2.27865
C         -4.00056       -0.50127        1.98065
C         -3.58437       -0.34202        0.68115
C         -4.50391       -0.17165       -0.32855
C         -5.86638       -0.16159       -0.04999
H         -7.32566       -0.29466        1.49747
H         -5.67634       -0.60580        3.29832
H         -3.26487       -0.62863        2.75581
H         -4.16190       -0.03635       -1.34166
C         -6.85989        0.05189       -1.13734
C          4.84246       -1.96215        2.00637
C          3.68646       -2.63572        1.66520
C          2.66598       -1.96674        1.01752
C          2.80793       -0.63394        0.71222
C          3.95768        0.03953        1.05322
C          4.99764       -0.61717        1.70028
H          5.63521       -2.47765        2.52129
H          3.57661       -3.67972        1.90899
H          1.75805       -2.47747        0.74586
H          4.04633        1.08854        0.82704
C          6.22553        0.12220        2.10047
C          2.81978        4.49544       -1.02692
C          2.02249        4.26520        0.07685
C          1.61681        2.97914        0.37714
C          2.00503        1.93747       -0.43160
C          2.80875        2.16048       -1.52539
C          3.22243        3.44896       -1.84510
H          3.14135        5.49606       -1.26073
H          1.72069        5.08562        0.70705
H          1.01632        2.77989        1.24918
H          3.10801        1.32857       -2.14183
C          4.10088        3.69547       -3.02074
Pd        -0.04243        0.08673        1.68527
C          0.35874        2.52471       -3.75133
C         -1.46729       -0.20426       -4.45164
H          0.98010        3.41838       -3.67879
H          1.02719        1.66926       -3.85256
H         -0.23264        2.60155       -4.66446
H         -2.08745       -1.04259       -4.77238
H         -2.10681        0.48506       -3.89897
H         -1.11024        0.30938       -5.34512
H          0.58223       -4.68695        1.68485
H          0.08284       -6.02970        0.65994
H          1.50183       -5.07249        0.22891
H         -6.49661       -0.34740       -2.08547
H         -7.80514       -0.44319       -0.91024
H         -7.06072        1.11530       -1.27481
H          7.09060       -0.54125        2.14020
H          6.45184        0.92023        1.39179
H          6.10034        0.57295        3.08593
H          3.98943        2.90845       -3.76812
H          3.85725        4.64446       -3.50068
H          5.14916        3.72830       -2.72067
