111
-148.55252460
P         -2.56528        2.11864        0.67589
P          0.10292        0.42147        0.42169
C         -1.46833        1.94312        2.10828
C         -0.28899        1.24204        1.97875
C         -3.33315        3.80082        0.59982
C         -2.70625        4.64605       -0.48748
C         -1.80948        2.49653        3.32572
H         -2.74219        3.02671        3.42765
C         -0.96016        2.35309        4.40946
H         -1.22575        2.78466        5.36069
C          0.22525        1.65596        4.27456
H          0.88515        1.54266        5.11888
C          0.56023        1.09471        3.05528
H          1.47376        0.53320        2.93562
Pd        -1.36099        1.33696       -1.12825
Cl        -3.02844        2.01750       -2.45886
Cl         0.05002        0.53714       -2.68746
C         -4.82644        3.48587        0.39248
C         -4.08322        1.06565        0.77152
H         -1.63284        4.76970       -0.32480
H         -2.83697        4.17996       -1.46502
H         -3.15985        5.63889       -0.53305
H         -5.04128        3.49338       -0.68504
H         -5.45090        4.28284        0.82413
H         -4.18519        0.58984       -0.21312
C         -5.20602        2.09805        0.98454
C         -3.96300        0.02327        1.86184
H         -3.17377        4.26035        1.58355
H         -5.39438        2.19854        2.06231
H         -6.14989        1.73166        0.55292
H         -4.86873       -0.58289        1.93752
H         -3.12182       -0.64749        1.67404
H         -3.79620        0.49458        2.83220
C         -1.14010       -3.96028        0.55196
C         -1.09315       -3.21182        1.75633
C         -0.69360       -1.88749        1.69101
C         -0.41968       -1.29135        0.48820
C         -0.56768       -1.98146       -0.68513
C         -0.96384       -3.30669       -0.69416
O         -1.32779       -5.36744        0.59647
C         -1.43527       -3.82499        3.12340
H         -0.58298       -1.30164        2.58610
H         -0.36200       -1.45931       -1.60285
C         -1.17371       -4.01172       -2.04312
C          4.48627        0.81626       -0.74324
C          3.68988        1.97943       -0.58411
C          2.36926        1.82424       -0.19397
C          1.82434        0.57750       -0.03388
C          2.55949       -0.54993       -0.29076
C          3.88391       -0.46629       -0.68530
O          5.88929        0.93516       -0.93017
C          4.24196        3.39445       -0.81759
H          1.74206        2.67986       -0.00999
H          2.07854       -1.50620       -0.18234
C          4.64169       -1.75704       -1.03403
C         -2.52422       -4.90484        2.98843
C         -0.16471       -4.42791        3.74123
C         -1.98726       -2.74866        4.08592
C          0.15339       -4.63236       -2.50483
C         -2.26111       -5.09628       -1.93922
C         -1.64538       -3.00272       -3.11583
C         -0.11748       -6.11081        0.66717
H         -2.17859       -5.74417        2.39006
H         -2.81409       -5.29340        3.96438
H         -3.41267       -4.49567        2.50852
H          0.60128       -3.66340        3.86935
H         -0.37412       -4.86340        4.71795
H          0.24964       -5.20825        3.10751
H         -2.33450       -3.20236        5.01392
H         -1.22682       -2.01676        4.35399
H         -2.82900       -2.22203        3.63778
H          0.03488       -5.14102       -3.46116
H          0.91579       -3.86336       -2.62461
H          0.52381       -5.35576       -1.78241
H         -1.96664       -5.88983       -1.25711
H         -3.19403       -4.66972       -1.57221
H         -2.45485       -5.55139       -2.91019
H         -1.92110       -3.51680       -4.03618
H         -2.51594       -2.44652       -2.76920
H         -0.86351       -2.28919       -3.37133
H         -0.12075       -6.72882        1.56491
H         -0.04047       -6.76876       -0.19822
H          0.74150       -5.43893        0.69096
C          6.63782        0.93448        0.27876
C          3.11800        4.34837       -1.28253
C          4.83269        3.93402        0.49356
C          5.31412        3.39403       -1.92256
C          5.30052       -2.31988        0.23412
C          3.67243       -2.82005       -1.60096
C          5.70569       -1.49897       -2.11628
H          2.58943        3.93449       -2.14094
H          2.39417        4.53497       -0.49061
H          3.52722        5.31495       -1.57549
H          5.21970        4.94401        0.36093
H          4.07362        3.96286        1.27496
H          5.64715        3.30612        0.84661
H          5.65733        4.40590       -2.13644
H          6.18207        2.80684       -1.63289
H          4.91533        2.96897       -2.84304
H          6.00627       -1.61047        0.65967
H          4.55013       -2.53712        0.99397
H          5.83902       -3.24223        0.01785
H          3.09205       -2.41089       -2.42752
H          4.22067       -3.68540       -1.97268
H          2.98093       -3.18271       -0.84174
H          6.19646       -2.42562       -2.41278
H          6.47541       -0.81804       -1.76163
H          5.25128       -1.05675       -3.00226
H          5.97182        0.85713        1.13906
H          7.33161        0.09402        0.27920
H          7.21803        1.85441        0.34915
