105
-153.06209899
Cl         0.17311        2.24022        2.94243
Pd        -0.46813        1.31256        0.99297
P         -1.08400        0.53436       -1.14393
N         -0.54583       -0.91098       -1.99441
C          0.25577       -1.98515       -1.61706
C          0.31782       -2.47865       -0.29013
C          1.21051       -3.52892        0.01244
C          1.26455       -4.05290        1.42858
C          2.02726       -5.37642        1.59712
C          3.31671       -5.37624        0.77132
C          3.00054       -5.18766       -0.71943
C          2.00774       -4.08590       -0.99124
C          1.88017       -3.62629       -2.29554
C          1.02025       -2.60556       -2.60430
H          0.95393       -2.24141       -3.61478
H          2.48350       -4.07303       -3.06768
H          3.92126       -4.98124       -1.28025
H          3.96605       -4.55988        1.11210
H          2.24444       -5.57018        2.65705
H          1.72490       -3.28437        2.06024
C         -0.67972       -2.07207        0.73044
C         -0.24261       -1.49697        1.95642
C         -1.16270       -1.37609        3.00194
C         -2.45728       -1.80075        2.85594
C         -2.90307       -2.36624        1.66752
C         -4.32440       -2.87121        1.61311
C         -4.60707       -3.82311        0.44101
C         -3.97551       -3.30132       -0.85199
C         -2.45510       -3.14065       -0.69810
C         -2.02033       -2.48476        0.59112
H         -1.96886       -4.12070       -0.76995
H         -4.42011       -2.33173       -1.10769
H         -5.68837       -3.97355        0.31197
H         -5.00166       -2.01195        1.56410
H         -3.14851       -1.70185        3.67581
H         -0.84160       -0.92835        3.92605
N          1.06007       -1.00781        2.13817
P          1.62613        0.22066        1.00819
C          2.60101       -0.34172       -0.37444
C          2.43088        0.27545       -1.58872
C          3.22655       -0.09103       -2.65881
C          4.19966       -1.07088       -2.51044
C          4.37770       -1.65531       -1.26292
C          3.57933       -1.28881       -0.19430
H          3.71127       -1.73572        0.77831
H          5.14181       -2.40269       -1.13452
C          5.05961       -1.46416       -3.66018
H          3.09279        0.38030       -3.61734
H          1.66929        1.02990       -1.69361
C          2.61625        1.49265        1.79783
C          3.30985        1.22358        2.95333
C          4.07892        2.21402        3.53703
C          4.15598        3.47776        2.96679
C          3.46436        3.72201        1.78790
C          2.69647        2.73048        1.20436
H          2.15385        2.91778        0.29054
H          3.52899        4.69426        1.33009
C          4.99893        4.53832        3.58489
H          4.62548        2.01040        4.44198
H          3.25624        0.24001        3.39067
H          1.22528       -0.59168        3.04557
H         -0.79342       -0.81403       -2.97127
C         -0.65572        1.96575       -2.15200
C         -1.01112        3.22490       -1.73117
C         -0.67524        4.33138       -2.48726
C          0.01553        4.18541       -3.68205
C          0.36934        2.90812       -4.09408
C          0.02877        1.80418       -3.33432
H          0.31093        0.81639       -3.65700
H          0.91669        2.78372       -5.01288
C          0.40620        5.37756       -4.48440
H         -0.94632        5.31764       -2.15117
H         -1.55143        3.33606       -0.80619
C         -2.87883        0.45082       -1.15114
C         -3.51080        0.61294       -2.36167
C         -4.89149        0.55478       -2.43364
C         -5.64873        0.33574       -1.29128
C         -4.99350        0.18554       -0.07758
C         -3.61295        0.22518       -0.01227
H         -3.10170        0.09605        0.92833
H         -5.57407        0.04944        0.81850
C         -7.13579        0.30206       -1.35568
H         -5.38903        0.68678       -3.37918
H         -2.92052        0.78989       -3.24747
Cl        -2.38348        2.49877        1.05384
H          2.60691       -6.12280       -1.13534
H          1.38941       -6.20773        1.27150
H          3.88931       -6.29953        0.93871
H          0.23864       -4.16310        1.80205
H         -4.21425       -3.96369       -1.69609
H         -2.06493       -2.55657       -1.53894
H         -4.55666       -3.36730        2.56432
H         -4.19701       -4.81496        0.66963
H          4.52348       -1.36224       -4.60483
H          5.95159       -0.83819       -3.70920
H          5.38087       -2.50316       -3.57350
H          4.59978        5.53127        3.37334
H          5.04249        4.42420        4.66891
H          6.01882        4.49610        3.20021
H          1.39111        5.73923       -4.18587
H          0.44259        5.14106       -5.54874
H         -0.30634        6.19278       -4.35113
H         -7.48187        0.01243       -2.34884
H         -7.54286       -0.41515       -0.64140
H         -7.55531        1.28227       -1.12538
