111
-148.55224211
P         -1.40450        2.64404        1.22661
P         -0.29318       -0.22976        0.54157
C         -0.89629        1.53007        2.56745
C         -0.47841        0.25062        2.26883
C         -0.23070        4.06884        1.10981
C          0.52434        4.03555       -0.20220
C         -0.89378        1.96368        3.87789
H         -1.17838        2.97833        4.10311
C         -0.50149        1.10279        4.88836
H         -0.50435        1.43994        5.91205
C         -0.10029       -0.18461        4.58664
H          0.20962       -0.85289        5.37311
C         -0.07798       -0.60889        3.27019
H          0.26565       -1.59852        3.01263
Pd        -1.63201        1.26055       -0.61345
Cl        -3.21288        2.61296       -1.44028
Cl        -1.61210       -0.19301       -2.33021
C         -1.14112        5.30068        1.28691
C         -2.97756        3.55287        1.59040
H         -0.16801        4.06264       -1.04616
H          1.19910        4.88952       -0.29704
H          1.11949        3.12512       -0.29767
H         -1.36811        5.71489        0.29504
H         -0.60549        6.09903        1.82232
H         -3.50667        3.62823        0.63177
C         -2.47121        4.94420        2.01040
C         -3.84601        2.84585        2.60912
H          0.45376        3.96833        1.96213
H         -2.31587        4.95417        3.09786
H         -3.24146        5.70629        1.81616
H         -4.09323        1.83334        2.28202
H         -3.34043        2.76401        3.57139
H         -4.78101        3.38505        2.77712
C         -0.92760       -4.67655       -0.21269
C         -1.89237       -3.93884        0.51993
C         -1.65220       -2.59446        0.75535
C         -0.54266       -1.97515        0.24193
C          0.33817       -2.65968       -0.55369
C          0.15380       -4.00275       -0.83525
O         -1.02747       -6.09085       -0.29978
C         -3.17489       -4.58005        1.07307
H         -2.33128       -2.00747        1.34989
H          1.17905       -2.12499       -0.95880
C          1.12230       -4.70501       -1.80005
C          3.67347        1.40929       -0.99326
C          3.39106        1.42663        0.39665
C          2.19939        0.87173        0.83156
C          1.28344        0.37801       -0.06000
C          1.50384        0.46254       -1.40955
C          2.67251        1.00521       -1.91292
O          4.96422        1.77506       -1.45961
C          4.35704        2.03303        1.42638
H          1.96391        0.82788        1.88020
H          0.72231        0.12671       -2.06798
C          2.83050        1.15979       -3.43373
C         -4.31265       -3.53755        1.16096
C         -3.67277       -5.70812        0.15102
C         -2.90246       -5.12820        2.48198
C          0.40331       -5.80931       -2.59594
C          1.68691       -3.70053       -2.83086
C          2.29436       -5.30042       -1.00579
C         -0.34757       -6.78696        0.73710
H         -4.11082       -2.78324        1.91998
H         -4.45167       -3.03454        0.20433
H         -5.25510       -4.01507        1.42808
H         -2.95794       -6.52572        0.10216
H         -4.61751       -6.11775        0.50755
H         -3.82452       -5.33628       -0.86173
H         -2.12067       -5.88370        2.46675
H         -2.57870       -4.33015        3.14978
H         -3.79912       -5.58007        2.90539
H          1.07184       -6.26560       -3.32552
H          0.04227       -6.59883       -1.94142
H         -0.45379       -5.40029       -3.12987
H          2.35425       -2.97834       -2.36297
H          2.26225       -4.21591       -3.59958
H          0.88138       -3.15637       -3.32348
H          1.94863       -6.03551       -0.28324
H          3.00641       -5.79034       -1.66948
H          2.82401       -4.52097       -0.45847
H         -1.05874       -7.39311        1.29792
H          0.39724       -7.45321        0.30216
H          0.14197       -6.08302        1.41126
C          5.87079        0.68535       -1.56976
C          5.34885        0.95604        1.89020
C          5.11573        3.23229        0.82948
C          3.58579        2.55716        2.65935
C          3.69386        2.38699       -3.77803
C          3.46360       -0.11383       -4.01332
C          1.45433        1.37600       -4.10475
H          6.03926        1.35490        2.63299
H          4.82134        0.11359        2.33697
H          5.93502        0.57560        1.05719
H          5.75231        3.70497        1.57701
H          5.75142        2.92675        0.00195
H          4.41728        3.98064        0.45624
H          2.79234        3.24023        2.35825
H          3.14135        1.74541        3.23338
H          4.25255        3.09615        3.33201
H          3.75045        2.53671       -4.85590
H          3.27435        3.28810       -3.33178
H          4.70985        2.27371       -3.40813
H          4.43813       -0.30671       -3.57114
H          2.83290       -0.98011       -3.81700
H          3.59313       -0.02943       -5.09198
H          1.57220        1.61730       -5.16079
H          0.91670        2.19746       -3.63178
H          0.83309        0.48339       -4.04921
H          6.75169        0.88126       -0.95861
H          5.39650       -0.23960       -1.23923
H          6.19209        0.57939       -2.60572
