111
-148.55261478
P         -1.63268        2.72992        0.94535
P         -0.50617       -0.20233        0.45835
C         -1.25717        1.64967        2.35704
C         -0.84500        0.35108        2.14198
C         -0.42728        4.13135        0.88358
C          0.43018        4.04765       -0.36150
C         -1.34969        2.13450        3.64619
H         -1.62792        3.16278        3.80896
C         -1.05860        1.30788        4.71764
H         -1.13536        1.68603        5.72400
C         -0.66327        0.00224        4.49898
H         -0.43086       -0.63954        5.33282
C         -0.54502       -0.47403        3.20578
H         -0.20019       -1.47819        3.01604
Pd        -1.70728        1.27974       -0.85968
Cl        -3.12632        2.71135       -1.83215
Cl        -1.50812       -0.26807       -2.47967
C         -1.32584        5.38247        0.95189
C         -3.21298        3.67461        1.15713
H          1.01435        3.12541       -0.38352
H         -0.19157        4.06136       -1.25903
H          1.12589        4.88760       -0.42499
H         -1.46529        5.77040       -0.06642
H         -0.81979        6.18765        1.50558
H         -3.66466        3.73059        0.15856
C         -2.71573        5.06952        1.57621
C         -4.17212        3.01284        2.12366
H          0.18413        4.04483        1.79109
H         -2.64755        5.10993        2.67187
H         -3.45364        5.83788        1.29891
H         -5.10709        3.57225        2.20168
H         -4.41193        1.99529        1.80697
H         -3.74565        2.95132        3.12494
C         -0.56861       -4.73367        0.00759
C         -1.69261       -3.97584       -0.41779
C         -1.66872       -2.60338       -0.22892
C         -0.55616       -1.97966        0.27107
C          0.57785       -2.69240        0.56315
C          0.62094       -4.06758        0.40484
O         -0.65814       -6.14601        0.10640
C         -2.91932       -4.58564       -1.11769
H         -2.52154       -1.99949       -0.48867
H          1.44320       -2.15568        0.91514
C          1.96496       -4.77648        0.64276
C          3.62940        1.31432       -0.71025
C          3.19069        1.43263        0.63342
C          1.94130        0.93531        0.96200
C          1.12027        0.40136        0.00418
C          1.49695        0.38244       -1.31186
C          2.72875        0.86919       -1.71124
O          4.97719        1.61101       -1.04559
C          4.05723        2.06683        1.73207
H          1.59154        0.95708        1.97875
H          0.79406       -0.00246       -2.02932
C          3.06557        0.90196       -3.20976
C         -4.11627       -4.57849       -0.15323
C         -3.26704       -3.74278       -2.36528
C         -2.66113       -6.02213       -1.60490
C          3.09245       -3.99064       -0.06471
C          2.25582       -4.82667        2.15155
C          1.98212       -6.20346        0.06810
C         -1.13491       -6.57845        1.36946
H         -4.34478       -3.56547        0.17641
H         -5.00614       -4.98369       -0.63423
H         -3.91111       -5.17777        0.73189
H         -3.58034       -2.73466       -2.09993
H         -2.40486       -3.66222       -3.02660
H         -4.08160       -4.19804       -2.92788
H         -2.50463       -6.69966       -0.76880
H         -3.50540       -6.39955       -2.18135
H         -1.77386       -6.05997       -2.23594
H          2.86761       -3.86530       -1.12355
H          3.23253       -3.00163        0.36851
H          4.04309       -4.51699        0.01708
H          2.28504       -3.82355        2.57605
H          1.48904       -5.38922        2.68091
H          3.21651       -5.30229        2.34736
H          1.71136       -6.19591       -0.98713
H          2.96991       -6.65377        0.16322
H          1.27608       -6.84608        0.58889
H         -2.13201       -6.17941        1.54891
H         -1.17427       -7.66781        1.38514
H         -0.47001       -6.23066        2.15851
C          5.84898        0.48946       -0.98099
C          4.93719        0.98307        2.37269
C          4.93460        3.19519        1.16036
C          3.17297        2.69803        2.83165
C          1.78424        1.11337       -4.04927
C          4.01369        2.06872       -3.54059
C          3.70478       -0.43454       -3.61540
H          5.59637        0.52622        1.63846
H          5.55577        1.40093        3.16654
H          4.32250        0.19291        2.80343
H          4.31938        3.94543        0.66456
H          5.50188        3.68858        1.94916
H          5.64671        2.81361        0.43275
H          2.62567        1.94305        3.39415
H          3.78155        3.25046        3.54719
H          2.45435        3.39284        2.39873
H          1.12290        0.24963       -4.00251
H          1.23216        1.98602       -3.70109
H          2.03056        1.27013       -5.09908
H          4.19986        2.13074       -4.61247
H          3.58390        3.01566       -3.21545
H          4.97478        1.95197       -3.04625
H          4.62271       -0.61673       -3.06152
H          3.94436       -0.44616       -4.67834
H          3.02602       -1.26278       -3.41287
H          5.30433       -0.39819       -0.65651
H          6.28698        0.30864       -1.96239
H          6.65770        0.69632       -0.28022
