72
-108.40303463
Cl        -1.81350        0.79776        2.63203
Cl         0.81623       -0.99125        2.79806
P          1.13787       -1.14220       -0.26791
P         -2.25570        0.17144       -0.39645
C         -3.26587       -1.42076       -0.18001
C         -3.64687       -1.57503        1.29348
C         -4.51720       -1.36409       -1.04893
C         -3.32134        1.73211       -0.16460
C         -4.10487        2.03516       -1.44819
C         -1.40816        0.45285       -2.06101
C         -1.47200       -0.71321       -3.02542
C          1.16717        0.20028       -1.49495
C          0.01660        0.97329       -1.96530
C          0.54444        2.05704       -2.79740
C          1.98847        1.93310       -2.85306
C          2.37031        0.77803       -2.06375
C         -2.41161       -2.62039       -0.56926
H         -2.76466       -1.56879        1.93371
H         -4.31182       -0.78566        1.63330
H         -5.20169       -0.58620       -0.71494
H         -5.05845       -2.31054       -1.00354
C         -4.30480        1.60603        0.99509
H         -3.46647        2.43680       -2.23420
H         -4.87039        2.78934       -1.25815
H         -1.99577        1.26709       -2.49506
H         -0.83837       -1.52720       -2.68063
H         -1.09624       -0.42673       -4.00985
H         -2.48619       -1.08758       -3.15966
H         -0.05838        2.76705       -3.36731
H          2.66699        2.57406       -3.42044
Pd        -0.51182       -0.24957        1.13930
H          3.38497        0.42254       -1.87324
C         -2.34234        2.86265        0.11535
H         -4.60486        1.14949       -1.83613
H         -4.79008        2.56389        1.18793
H         -5.09490        0.89040        0.77558
H         -3.80448        1.30881        1.91426
H         -1.57269        2.91330       -0.65623
H         -2.85531        3.82608        0.14394
H         -1.85828        2.71948        1.08041
H         -4.16446       -2.52144        1.45836
H         -4.27157       -1.17442       -2.09280
H         -1.48274       -2.62764       -0.00180
H         -2.93445       -3.55360       -0.35305
H         -2.17314       -2.62997       -1.62956
C          2.80144       -1.24256        0.44289
C          3.22199       -2.20385        1.32802
C          4.55237       -1.92248        1.63844
C          4.89198       -0.79952        0.92542
O          3.82670       -0.37196        0.18693
H          2.62525       -3.00848        1.72471
H          5.18770       -2.47621        2.31027
H          5.85812       -0.31031        0.93740
C          0.74113       -2.74737       -0.98175
C          0.64573       -3.89805       -0.23870
C          0.32582       -4.92961       -1.12255
C          0.23969       -4.36347       -2.37087
O          0.48854       -3.02244       -2.29804
H          0.77350       -3.97673        0.82889
H          0.17532       -5.96737       -0.87366
H          0.00697       -4.88884       -3.28881
Fe         1.33248        2.12387       -0.92128
C          2.22789        3.88024       -0.39071
C          3.00325        2.74150        0.07031
C          2.18081        1.96671        0.97823
C          0.88704        2.60948        1.05035
C          0.91383        3.79845        0.21962
H          2.57866        4.66884       -1.06057
H          4.04120        2.52139       -0.19032
H          2.47290        1.05233        1.49727
H          0.06700        2.28286        1.69176
H          0.10780        4.52659        0.10638
