171
-217.84068858
P         -1.63909        0.32225       -0.41151
P          1.63162       -0.40260       -0.33147
C         -0.91085        1.25541       -1.75818
C          0.94798       -1.41886       -1.64128
C         -0.09303        0.61104       -2.67925
C          0.51935        1.37705       -3.68923
C          0.26518        2.73702       -3.75797
C         -0.57249        3.35050       -2.85095
C         -1.15642        2.60374       -1.84712
C          1.20441       -2.76830       -1.61319
C          0.63677       -3.60296       -2.55518
C         -0.20826       -3.07662       -3.50870
C         -0.48365       -1.71982       -3.55043
C          0.12634       -0.86187       -2.61489
Cl         1.57682        0.48733        2.76905
Cl        -1.63864       -0.47529        2.78717
C         -1.42341       -1.20370       -4.58225
C          1.40607        0.74075       -4.70084
H         -0.77167        4.40713       -2.92489
H         -1.81585        3.07432       -1.13653
H          1.85039       -3.17210       -0.85039
H          0.84451       -4.66040       -2.53655
H          0.72841        3.31660       -4.53859
H         -0.66971       -3.72424       -4.23511
C         -4.06277       -3.19118       -1.89269
C         -3.00945       -3.42887       -1.01754
C         -2.27171       -2.33792       -0.57463
C         -2.57899       -1.07429       -1.01146
C         -3.61955       -0.85468       -1.88001
C         -4.39076       -1.91565       -2.33823
H         -4.64790       -4.02872       -2.22256
H         -1.45405       -2.46059        0.11466
H         -3.83948        0.15469       -2.18667
C         -4.20410        2.82755        2.37305
C         -4.75963        1.69994        1.78161
C         -3.96804        0.96900        0.90455
C         -2.67963        1.35935        0.63465
C         -2.14451        2.47053        1.23850
C         -2.89571        3.22621        2.12851
H         -4.80892        3.39751        3.05283
H         -4.34268        0.07262        0.44327
H         -1.12218        2.73595        1.03036
C          4.32772       -2.72899        2.48224
C          2.98665       -3.08226        2.39786
C          2.18338       -2.38084        1.50737
C          2.71011       -1.37287        0.73758
C          4.03850       -1.04051        0.83300
C          4.87676       -1.70919        1.71447
H          4.95127       -3.25573        3.17972
H          1.13222       -2.59807        1.42625
H          4.42160       -0.23837        0.22713
C          3.95341        3.26683       -1.59585
C          2.92376        3.40184       -0.67197
C          2.20269        2.26506       -0.33217
C          2.49943        1.05413       -0.90513
C          3.51847        0.93590       -1.81867
C          4.27847        2.04433       -2.17370
H          4.52727        4.13397       -1.85950
H          1.42003        2.31719        0.40570
H          3.73890       -0.03363       -2.23353
Pd        -0.03892       -0.00579        1.27553
C         -3.92443       -5.38404        0.25203
C         -2.71607       -4.85882       -0.54387
C         -1.47314       -4.90847        0.36474
C         -2.46351       -5.76401       -1.76376
H         -3.74126       -6.39385        0.61880
H         -4.12634       -4.74385        1.11067
H         -4.82243       -5.40973       -0.36428
H         -0.59290       -4.53373       -0.15653
H         -1.62313       -4.31210        1.26445
H         -1.26273       -5.93094        0.67802
H         -1.63092       -5.38739       -2.35644
H         -2.22261       -6.78011       -1.45185
H         -3.33841       -5.81381       -2.41064
C         -5.14412       -0.86694       -4.50280
C         -5.59644       -1.64132       -3.25068
C         -6.62758       -0.80236       -2.47487
C         -6.27295       -2.94747       -3.70989
H         -5.99508       -0.63300       -5.14236
H         -4.66034        0.07250       -4.23872
H         -4.44140       -1.45682       -5.08933
H         -6.20320        0.15139       -2.16282
H         -7.50354       -0.59359       -3.08878
H         -6.95999       -1.33266       -1.58279
H         -7.10972       -2.73579       -4.37551
H         -5.57157       -3.58190       -4.25166
H         -6.66339       -3.50822       -2.86089
C         -6.28013        1.00548        3.64873
C         -6.19264        1.27832        2.13581
C         -6.60890       -0.00194        1.38624
C         -7.16657        2.40691        1.75125
H         -6.04790        1.89899        4.22691
H         -7.28084        0.67739        3.92925
H         -5.57482        0.22700        3.93913
H         -7.62765       -0.28962        1.64560
H         -6.57331        0.15094        0.30866
H         -5.95550       -0.83661        1.63979
H         -6.94585        3.32408        2.29599
H         -7.09958        2.62592        0.68568
H         -8.19590        2.12655        1.97424
C         -0.88587        4.09939        3.36263
C         -2.27074        4.46261        2.78993
C         -3.14231        4.99108        3.94583
C         -2.12337        5.57021        1.73297
H         -0.44580        4.94697        3.88759
H         -0.96549        3.27018        4.06526
H         -0.19263        3.80503        2.57711
H         -4.10937        5.34006        3.58478
H         -3.31070        4.21543        4.69275
H         -2.65748        5.83157        4.44234
H         -1.64932        6.45568        2.15604
H         -1.51857        5.23093        0.89367
H         -3.09798        5.86126        1.34158
C          0.94245       -4.46633        3.00908
C          2.42288       -4.17331        3.31870
C          2.53252       -3.70045        4.77929
C          3.22364       -5.47486        3.12781
H          0.56007       -5.25729        3.65402
H          0.32376       -3.58364        3.17019
H          0.82181       -4.79308        1.97695
H          2.12405       -4.44436        5.46298
H          3.57007       -3.52155        5.05915
H          1.98282       -2.77029        4.92273
H          4.27079       -5.34197        3.39641
H          2.82112       -6.27437        3.74960
H          3.18265       -5.80233        2.08908
C          6.45759        0.21612        2.04100
C          6.35481       -1.30401        1.80548
C          7.05598       -1.67294        0.48689
C          7.07246       -2.02155        2.96500
H          5.91839        0.50197        2.94388
H          7.49687        0.52322        2.15640
H          6.03823        0.77990        1.20876
H          6.58689       -1.17142       -0.35801
H          8.10708       -1.38565        0.50808
H          7.00133       -2.74671        0.30853
H          8.10981       -1.69522        3.03854
H          6.58847       -1.80526        3.91728
H          7.07911       -3.10117        2.81687
C          2.76799        4.57266        1.53647
C          2.59043        4.73334        0.01470
C          1.13414        5.11276       -0.30223
C          3.50709        5.87423       -0.46644
H          3.79588        4.30197        1.77677
H          2.53105        5.49977        2.05804
H          2.11981        3.79199        1.93166
H          0.44716        4.33395        0.02376
H          0.85408        6.04111        0.19519
H          0.99881        5.24965       -1.37452
H          3.25151        6.81010        0.03041
H          4.55211        5.65831       -0.24487
H          3.40566        6.03264       -1.53996
C          4.97531        1.39789       -4.50043
C          5.47295        1.87602       -3.12617
C          6.44381        0.83437       -2.53929
C          6.24116        3.19803       -3.31981
H          4.30118        2.13214       -4.94002
H          5.80853        1.25454       -5.18824
H          4.44360        0.45065       -4.41977
H          5.96874       -0.14178       -2.45158
H          7.32313        0.71917       -3.17278
H          6.77955        1.13735       -1.54768
H          5.60228        3.96303       -3.76068
H          6.62559        3.57089       -2.37056
H          7.09154        3.05640       -3.98677
H         -0.94188       -1.14871       -5.55936
H          0.83046        0.38538       -5.55609
H         -1.79142       -0.20907       -4.32679
H         -2.28729       -1.86281       -4.67337
H          1.94176       -0.10962       -4.27654
H          2.14557        1.44984       -5.07296
