59
-75.79764161
Cl         1.62217        0.64680        2.32460
P          1.55302        0.15490       -0.84095
P         -1.56649       -0.30732       -0.77126
C          0.55321        0.25865       -2.39157
H          0.18368        1.28208       -2.49449
H          1.20218        0.05234       -3.24847
C         -0.59262       -0.70719       -2.28943
H         -0.22406       -1.73235       -2.20080
H         -1.25575       -0.66652       -3.15924
C          2.77240       -1.23577       -0.91069
H          2.63182       -1.74093       -1.87454
C          2.69221        1.58747       -0.55617
H          2.29109        2.15456        0.29323
C         -2.72569       -1.64264       -0.22043
H         -2.32066       -2.05760        0.71109
C         -2.76223        1.07285       -1.07360
H         -2.62838        1.39443       -2.11409
C          4.13218       -0.50731       -0.85653
H          4.86454       -1.13135       -0.32385
H          4.53284       -0.38760       -1.87404
C          4.01565        0.88894       -0.18489
H          4.86939        1.52255       -0.46316
H          4.07815        0.77130        0.90729
C         -4.03036       -0.86231        0.03711
H         -4.89967       -1.51800       -0.11166
H         -4.07249       -0.54976        1.09122
C         -4.13346        0.39325       -0.87242
H         -4.84612        1.11710       -0.45090
H         -4.55253        0.10143       -1.84679
C          2.56149       -2.22799        0.22935
H          2.52770       -1.67233        1.17585
H          3.44416       -2.87803        0.30821
C          2.77644        2.48713       -1.78488
H          3.18881        1.90569       -2.62008
H          1.76051        2.76319       -2.09767
C         -2.84525       -2.74400       -1.26866
H         -3.25880       -2.31120       -2.18919
H         -1.83929       -3.09248       -1.53871
C         -2.51621        2.24876       -0.13252
H         -3.38645        2.91943       -0.15990
H         -2.47633        1.87073        0.89765
C          1.31181       -3.08169        0.06582
H          0.41112       -2.47008        0.01180
H          1.18080       -3.77869        0.89658
H          1.35310       -3.66985       -0.85289
C          3.59692        3.74923       -1.55657
H          3.19351        4.33518       -0.72850
H          3.60896        4.39358       -2.43871
H          4.63438        3.51825       -1.31090
C         -3.68648       -3.92769       -0.81093
H         -4.71570       -3.63456       -0.59915
H         -3.28264       -4.36597        0.10371
H         -3.72367       -4.71788       -1.56440
C         -1.25533        3.03515       -0.46231
H         -1.09871        3.86632        0.22890
H         -0.36641        2.40599       -0.41797
H         -1.30164        3.45078       -1.47066
Cl        -1.58668       -0.21584        2.42945
Pd         0.01014        0.06211        0.88160
