72
-108.39791043
Cl        -1.87060        0.53136        2.73774
Cl         1.13885       -0.53963        2.67607
P          1.14049       -1.11266       -0.29675
P         -2.25592        0.07883       -0.38511
C         -3.25005       -1.53257       -0.26032
C         -3.64167       -1.77399        1.19878
C         -4.49493       -1.44373       -1.13595
C         -3.34661        1.60584       -0.05713
C         -4.33770        1.39396        1.08351
C         -1.43860        0.46377       -2.04309
C         -1.46896       -0.65707       -3.06175
C          1.13577        0.27006       -1.47851
C         -0.03164        1.02503       -1.93305
C          0.46401        2.13027       -2.75616
C          1.91029        2.05092       -2.80675
C          2.32193        0.90088       -2.02541
C         -2.37630       -2.69785       -0.70448
H         -2.76610       -1.78107        1.84795
H         -4.33010       -1.02135        1.57300
H         -5.02574       -2.39711       -1.14536
H         -4.24403       -1.19579       -2.16612
C         -2.38267        2.72444        0.30564
H         -4.83256        2.33277        1.33621
H         -3.84196        1.04037        1.98485
H         -2.05722        1.27596       -2.43544
H         -2.47058       -1.05756       -3.21259
H         -0.80792       -1.46528       -2.75761
H         -1.10631       -0.31201       -4.03222
H         -0.15828        2.82952       -3.31755
H          2.57191        2.71879       -3.36247
Pd        -0.53508       -0.34796        1.17515
H          3.34596        0.56995       -1.84052
C         -4.12488        1.98706       -1.32342
H         -5.12031        0.68887        0.80986
H         -2.90628        3.67809        0.39859
H         -1.90028        2.51901        1.26049
H         -1.61226        2.83517       -0.45875
H         -3.48851        2.46522       -2.06737
H         -4.59724        1.12129       -1.78444
H         -4.91178        2.70486       -1.08580
H         -4.13743       -2.74005        1.30719
H         -5.19075       -0.69191       -0.76750
H         -2.12073       -2.64443       -1.75935
H         -1.45665       -2.72500       -0.12286
H         -2.89030       -3.64807       -0.54963
C          2.82011       -1.21345        0.37827
C          3.28162       -2.22425        1.18453
C          4.60759       -1.92573        1.49810
C          4.90273       -0.74293        0.86663
O          3.81445       -0.29532        0.17514
H          2.71632       -3.07544        1.52593
H          5.26935       -2.50791        2.11837
H          5.85369       -0.22596        0.90321
C          0.77567       -2.70239       -1.06474
C          0.70126       -3.88108       -0.36399
C          0.40648       -4.88651       -1.28585
C          0.31379       -4.27782       -2.51338
O          0.53432       -2.93545       -2.39112
H          0.82649       -3.99731        0.70052
H          0.27637       -5.93542       -1.07509
H          0.09571       -4.77459       -3.45063
Fe         1.26931        2.18755       -0.84341
C          2.18252        2.03017        0.96730
C          0.85822        2.59530        1.11438
C          0.79300        3.80334        0.31189
C          2.08701        3.99237       -0.31900
C          2.94575        2.89428        0.08806
H          2.54129        1.11581        1.44279
H          0.07952        2.19867        1.76817
H         -0.05367        4.49066        0.24865
H          2.37163        4.82507       -0.96626
H          3.98851        2.74774       -0.20295
