72
-98.09397421
Fe        -0.05092        2.78891       -0.04494
P          1.83959       -0.08066       -0.04949
P         -1.89133       -0.08192       -0.08857
C          1.42590        1.57608        0.62760
C          0.46325        1.85401        1.67905
C          0.42302        3.29045        1.89136
C          1.37741        3.90488        0.98766
C          1.99549        2.84689        0.20785
C         -1.42411        1.55026       -0.78295
C         -2.02383        2.83177       -0.44763
C         -1.34979        3.85996       -1.22355
C         -0.35083        3.21475       -2.05617
C         -0.39699        1.78926       -1.78377
C          3.03244       -0.87464        1.11842
C          4.33920       -0.14645        0.76600
C          3.03412        0.14179       -1.45633
C          4.40886        0.22650       -0.74663
C         -3.35279       -0.73293       -1.01869
C         -4.52710       -0.21457       -0.17109
C         -2.67149        0.10262        1.58389
C         -4.16733       -0.18995        1.33926
H         -0.10241        1.11006        2.23898
H         -0.19435        3.81263        2.62601
H          1.59843        4.97175        0.91318
H          2.76665        2.97967       -0.55327
H         -2.84461        2.98593        0.25657
H          0.23951        1.02898       -2.23643
Cl         1.53656       -3.08031       -0.42019
Cl        -1.65936       -3.03789        0.12654
Pd        -0.02711       -1.49051       -0.08651
H          3.10460       -1.93495        0.85117
C          2.57746       -0.72435        2.56429
H          2.77565        1.08887       -1.94491
C          2.97999       -0.99672       -2.47212
H          5.21025       -0.75058        1.06340
H          4.39719        0.76753        1.37492
H          4.84434        1.22887       -0.87253
H          5.10748       -0.45168       -1.25630
H         -1.57552        4.92863       -1.20432
H          0.31697        3.71190       -2.76306
H          2.50551        0.34452        2.80492
H          3.83849       -0.90749       -3.15248
H         -3.30481       -1.82685       -0.97352
C         -3.37963       -0.27152       -2.47080
H         -2.51796        1.14683        1.88073
C         -2.03385       -0.84058        2.60011
H         -5.42812       -0.82061       -0.35348
H         -4.78133        0.80084       -0.50672
H         -4.79405        0.53606        1.87823
H         -4.41084       -1.16637        1.77943
H         -4.35595       -0.52014       -2.90973
H         -0.94084       -0.75991        2.54705
C          3.49574       -1.42716        3.55238
H          3.56126       -2.49516        3.33634
H          4.50983       -1.02634        3.50563
H          3.14799       -1.32044        4.58241
C          1.69522       -1.04906       -3.28080
H          1.53113       -0.11856       -3.82732
H          1.70534       -1.86078       -4.01179
H          0.83191       -1.20970       -2.63666
C         -2.26332       -0.87954       -3.30305
H         -2.28900       -0.53818       -4.34033
H         -1.28742       -0.61793       -2.89568
H         -2.32438       -1.96941       -3.31112
C         -2.50668       -0.58779        4.02351
H         -2.26893        0.42907        4.34178
H         -3.58809       -0.70695        4.11013
H         -2.04273       -1.27261        4.73697
H          1.55328       -1.11100        2.65945
H          3.13242       -1.94486       -1.94052
H         -3.32161        0.82459       -2.49563
H         -2.25040       -1.87536        2.30316
