171
-217.84362572
P         -1.67282        0.34641       -0.38385
P          1.62408       -0.40203       -0.33170
C         -0.94872        1.25897       -1.74833
C          0.90959       -1.42208       -1.62395
C         -0.13164        0.60703       -2.66536
C          0.48756        1.36558       -3.67748
C          0.24302        2.72676       -3.75012
C         -0.59257        3.34858       -2.84678
C         -1.18340        2.60900       -1.84143
C          1.15393       -2.77361       -1.58944
C          0.56741       -3.61002       -2.51823
C         -0.28109       -3.08302       -3.46842
C         -0.54286       -1.72358       -3.51783
C          0.08103       -0.86595       -2.59209
Cl         1.57373        0.46180        2.75284
Cl        -1.52159       -0.27985        2.91619
C         -1.46266       -1.19192       -4.55963
C          1.38736        0.73107       -4.67964
H         -0.78255        4.40671       -2.92310
H         -1.83668        3.08711       -1.12994
H          1.80656       -3.17764       -0.83255
H          0.76702       -4.66890       -2.49446
H          0.71558        3.30070       -4.52939
H         -0.75228       -3.73199       -4.18726
C         -4.01917       -3.29509       -1.66975
C         -2.94713       -3.45919       -0.80081
C         -2.23598       -2.32678       -0.42453
C         -2.58333       -1.09522       -0.91997
C         -3.64029       -0.94900       -1.78406
C         -4.38820       -2.05313       -2.17442
H         -4.58683       -4.16352       -1.94581
H         -1.40787       -2.39302        0.25992
H         -3.89182        0.03637       -2.14018
C         -4.20721        2.87499        2.40391
C         -2.89394        3.25722        2.15937
C         -2.15460        2.49560        1.26448
C         -2.70376        1.39088        0.66165
C         -3.99687        1.01628        0.93129
C         -4.77920        1.75794        1.80788
H         -4.80259        3.44917        3.08841
H         -1.12980        2.74906        1.05341
H         -4.38294        0.12542        0.46871
C          4.45670       -2.75645        2.31454
C          3.10418       -3.07720        2.33132
C          2.25876       -2.36817        1.48879
C          2.74840       -1.36583        0.68924
C          4.08471       -1.05294        0.69515
C          4.97105       -1.75106        1.50494
H          5.13252       -3.29286        2.95358
H          1.20437       -2.58713        1.46838
H          4.42869       -0.24836        0.07020
C          3.84121        3.28806       -1.71099
C          4.12799        2.07315       -2.32194
C          3.41070        0.95439       -1.91312
C          2.45625        1.06378       -0.93173
C          2.19089        2.26966       -0.33332
C          2.88061        3.41253       -0.71451
H          4.39999        4.15420       -2.01141
H          3.60075       -0.01511       -2.34131
H          1.45817        2.31291        0.45454
Pd        -0.04341        0.01004        1.24905
C         -3.77235       -5.34728        0.62078
C         -2.60735       -4.85260       -0.25469
C         -1.32627       -4.82714        0.60127
C         -2.38743       -5.82679       -1.42722
H         -3.94872       -4.66108        1.44897
H         -4.69448       -5.42038        0.04515
H         -3.55777       -6.33150        1.03675
H         -0.47929       -4.46196        0.02166
H         -1.44872       -4.18799        1.47545
H         -1.07930       -5.82714        0.95742
H         -2.10394       -6.81482       -1.06495
H         -3.28995       -5.94003       -2.02631
H         -1.59460       -5.46774       -2.08216
C         -5.17854       -1.18494       -4.40136
C         -5.60952       -1.86063       -3.08687
C         -6.63803       -0.97097       -2.36575
C         -6.28196       -3.20361       -3.43186
H         -4.70093       -0.22343       -4.21744
H         -4.47570       -1.81436       -4.94520
H         -6.03808       -1.01041       -5.04839
H         -6.22128        0.01047       -2.14215
H         -7.52659       -0.82419       -2.97951
H         -6.94885       -1.42835       -1.42674
H         -6.64680       -3.70277       -2.53438
H         -7.13561       -3.04984       -4.09192
H         -5.58652       -3.87040       -3.94145
C         -2.11733        5.60236        1.78115
C         -2.25204        4.48204        2.82613
C         -0.85935        4.10609        3.37178
C         -3.10212        4.99834        4.00343
H         -1.53005        5.27029        0.92661
H         -3.09715        5.90402        1.41136
H         -1.63044        6.47954        2.20691
H         -0.41049        4.94297        3.90636
H         -0.93023        3.26380        4.05966
H         -0.17731        3.82618        2.57130
H         -4.07147        5.36126        3.66292
H         -3.26596        4.21156        4.73965
H         -2.60308        5.82649        4.50654
C         -6.29556        1.03613        3.66619
C         -6.21775        1.35552        2.16215
C         -6.66881        0.11050        1.37443
C         -7.17254        2.51554        1.82460
H         -7.30116        0.72457        3.94807
H         -5.60707        0.23137        3.92338
H         -6.03358        1.90479        4.26911
H         -6.03736       -0.74881        1.59953
H         -7.69407       -0.15867        1.62799
H         -6.63165        0.29697        0.30206
H         -6.93231        3.40863        2.40009
H         -7.10815        2.77103        0.76704
H         -8.20557        2.24652        2.04444
C          3.56465       -4.70609        4.23257
C          2.51988       -4.17278        3.23359
C          2.03583       -5.33833        2.35424
C          1.33448       -3.59797        4.03512
H          4.39944       -5.17873        3.71560
H          3.95398       -3.90181        4.85661
H          3.12289       -5.45334        4.89170
H          2.86378       -5.76327        1.78706
H          1.59722       -6.13091        2.96019
H          1.28344       -5.00301        1.64242
H          0.52298       -3.28267        3.38084
H          0.93237       -4.34061        4.72384
H          1.64835       -2.73160        4.61687
C          7.27938       -2.68343        1.18493
C          6.47033       -1.42279        1.54194
C          6.84745       -0.94414        2.95545
C          6.83285       -0.31221        0.53550
H          7.10335       -3.48486        1.90134
H          7.00276       -3.05062        0.19675
H          8.34851       -2.47176        1.17918
H          6.26745       -0.06315        3.22978
H          6.65360       -1.71639        3.69898
H          7.90442       -0.68426        3.01089
H          7.90141       -0.09924        0.56189
H          6.58033       -0.60950       -0.48220
H          6.30742        0.61444        0.76603
C          4.98918        2.99277       -4.49965
C          5.25651        1.99106       -3.36020
C          5.37073        0.57853       -3.96619
C          6.59189        2.33595       -2.67527
H          4.96963        4.01788       -4.13208
H          5.76511        2.92994       -5.26243
H          4.03150        2.79202       -4.97768
H          5.60903       -0.15934       -3.20035
H          4.44244        0.28239       -4.45329
H          6.16251        0.54185       -4.71428
H          6.57601        3.34513       -2.26510
H          6.79419        1.64626       -1.85637
H          7.42019        2.27450       -3.38091
C          3.48370        5.87980       -0.51805
C          2.57948        4.74137       -0.00859
C          2.81162        4.57462        1.50535
C          1.11405        5.12696       -0.27057
H          3.33667        6.05057       -1.58435
H          3.25819        6.81252       -0.00114
H          4.53545        5.65235       -0.34513
H          2.16832        3.80225        1.92412
H          3.84432        4.29078        1.70662
H          2.60613        5.50359        2.03685
H          0.85358        6.05070        0.24570
H          0.94122        5.27470       -1.33601
H          0.43789        4.34536        0.07123
H         -1.95647       -0.27933       -4.22272
H          0.88023        0.60980       -5.63772
H         -2.23801       -1.92027       -4.79878
H         -0.92275       -0.96591       -5.47983
H          1.72549       -0.25171       -4.34852
H          2.27260        1.34433       -4.84722
