111
-148.55632336
P         -1.63949        2.81713       -0.03998
P         -0.54555       -0.09977        0.50389
C         -1.64453        2.14491        1.64903
C         -1.23854        0.84578        1.87155
C         -0.42053        4.20164       -0.17585
C          0.69955        3.83735       -1.12741
C         -2.02225        2.93603        2.71538
H         -2.29882        3.96329        2.54375
C         -2.01848        2.41390        3.99742
H         -2.31774        3.03072        4.82906
C         -1.62544        1.10693        4.21378
H         -1.61674        0.70298        5.21273
C         -1.22295        0.32300        3.14749
H         -0.87696       -0.68708        3.30132
Pd        -1.30875        0.96675       -1.39288
Cl        -2.33932        2.09381       -3.03385
Cl        -0.88452       -0.89384       -2.57869
C         -1.28129        5.39426       -0.63956
C         -3.20141        3.71909       -0.46267
H          0.30306        3.60410       -2.11771
H          1.41213        4.65795       -1.23886
H          1.24849        2.95912       -0.78147
H         -1.16301        5.51078       -1.72554
H         -0.90499        6.33108       -0.20171
H         -3.39718        3.50050       -1.52021
C         -2.78765        5.19336       -0.30707
C         -4.37904        3.28576        0.38437
H         -0.03775        4.37057        0.83909
H         -2.98492        5.51210        0.72556
H         -3.41920        5.83639       -0.93911
H         -4.55920        2.21246        0.29022
H         -4.20573        3.49646        1.43982
H         -5.29247        3.80923        0.09311
C         -0.82257       -4.63080        0.78518
C          0.29336       -3.95295        1.33934
C          0.33975       -2.57284        1.23306
C         -0.69676       -1.87159        0.67456
C         -1.82611       -2.51183        0.23763
C         -1.93657       -3.89099        0.31140
O         -0.80654       -6.04610        0.66685
C          1.46686       -4.68798        2.00542
H          1.20330       -2.02308        1.56670
H         -2.61429       -1.91639       -0.19029
C         -3.23232       -4.56212       -0.16997
C          3.73380        1.30160       -0.16483
C          3.15469        0.34965       -1.04575
C          1.85197       -0.05279       -0.80782
C          1.16646        0.38298        0.29424
C          1.76272        1.20474        1.21392
C          3.06183        1.64981        1.03732
O          4.93068        1.96962       -0.53042
C          3.87894       -0.26038       -2.25642
H          1.33374       -0.68107       -1.51239
H          1.19205        1.51809        2.07096
C          3.68708        2.49521        2.15892
C          2.53183       -5.00799        0.94525
C          2.11112       -3.80604        3.09954
C          0.99500       -5.98146        2.69395
C         -3.50961       -5.86153        0.60769
C         -4.44606       -3.63342        0.06096
C         -3.12033       -4.85621       -1.67378
C         -0.24982       -6.51777       -0.55403
H          2.89319       -4.09383        0.47473
H          3.38521       -5.51879        1.39049
H          2.12971       -5.64570        0.16175
H          2.85706       -4.36884        3.66031
H          2.61770       -2.94068        2.67469
H          1.35926       -3.45220        3.80451
H          0.59871       -6.69310        1.97415
H          1.81642       -6.46775        3.21957
H          0.20939       -5.76612        3.41742
H         -4.46123       -6.30103        0.30978
H         -2.73560       -6.60385        0.43036
H         -3.54626       -5.66696        1.67902
H         -4.41050       -2.75548       -0.58222
H         -5.37810       -4.15315       -0.15992
H         -4.48672       -3.29931        1.09736
H         -2.94911       -3.93699       -2.23358
H         -2.29229       -5.52890       -1.88351
H         -4.03276       -5.31716       -2.05102
H          0.06078       -5.67950       -1.17905
H          0.61055       -7.15266       -0.34319
H         -0.98975       -7.11435       -1.08734
C          4.69232        3.14877       -1.28169
C          3.67084       -1.79129       -2.25520
C          3.29168        0.32724       -3.55075
C          5.39635       -0.01123       -2.21921
C          3.04470        3.89247        2.16282
C          3.42287        1.81409        3.52009
C          5.21262        2.62907        2.01183
H          4.01487       -2.22467       -1.31652
H          2.62315       -2.05772       -2.38429
H          4.22763       -2.25989       -3.06619
H          2.22256        0.12860       -3.61945
H          3.43155        1.40575       -3.59203
H          3.77032       -0.10730       -4.42786
H          5.90015       -0.53279       -3.03267
H          5.62428        1.04755       -2.31637
H          5.81988       -0.35901       -1.27765
H          3.46368        4.51150        2.95566
H          3.20772        4.40365        1.21591
H          1.96920        3.82568        2.32358
H          3.80108        0.79215        3.51797
H          3.91741        2.35408        4.32712
H          2.36068        1.77942        3.75660
H          5.64577        3.14762        2.86684
H          5.47549        3.19131        1.11906
H          5.67890        1.64729        1.93723
H          4.10450        2.91540       -2.16803
H          4.14543        3.87239       -0.67958
H          5.64618        3.58112       -1.58451
