58
-89.86780372
P          1.74151       -0.24564        0.90528
C          1.50287        1.53882        0.81018
C          1.52070        2.11251       -0.44130
C          1.29991        3.46975       -0.58519
C          1.06700        4.24750        0.53084
C          1.06130        3.67194        1.78580
C          1.28193        2.31408        1.92544
H          1.29076        1.86500        2.90415
H          1.70016        1.48798       -1.30278
C          3.42772       -0.68643        0.48093
C          4.37699        0.29552        0.31092
C          5.67394       -0.05195       -0.02151
C          6.00952       -1.38188       -0.18236
C          5.05322       -2.36352       -0.01171
C          3.75697       -2.01283        0.32207
H          2.99581       -2.76715        0.44631
H          4.09898        1.32954        0.43552
C          1.31978       -0.95983        2.55305
C         -0.14556       -1.32972        2.73252
C         -1.11680       -0.18158        2.47755
P         -1.61782       -0.08996        0.70559
C         -3.03912       -1.15819        0.46088
C         -2.87983       -2.52326        0.39372
C         -3.98386       -3.33509        0.20457
C         -5.23973       -2.77319        0.08575
C         -5.39485       -1.40274        0.15421
C         -4.28875       -0.59344        0.34265
H         -4.39225        0.47875        0.39350
H         -1.89266       -2.94945        0.47198
C         -1.98131        1.59038        0.18123
C         -2.21197        2.59541        1.09309
C         -2.47552        3.87796        0.64702
C         -2.51119        4.14379       -0.70783
C         -2.29162        3.12993       -1.61901
C         -2.02944        1.84943       -1.16929
H         -1.86447        1.03979       -1.86227
H         -2.18609        2.37769        2.14817
Pd         0.12266       -0.74773       -0.67937
Cl         1.80892       -1.26341       -2.06784
Cl        -1.46242       -1.28067       -2.18431
H         -2.04511       -0.29952        3.04258
H         -0.68202        0.77102        2.77951
H         -0.39849       -2.16366        2.06375
H         -0.29326       -1.72548        3.74958
H          1.95955       -1.83599        2.68473
H          1.63522       -0.23724        3.30703
H          1.30290        3.91577       -1.56608
H          0.88168        4.28026        2.65705
H          6.41925        0.71440       -0.15751
H          5.31351       -3.40093       -0.14309
H         -3.86206       -4.40416        0.14502
H         -6.37416       -0.96346        0.05821
H         -2.64923        4.66955        1.35730
H         -2.32360        3.33423       -2.67651
H          0.88804        5.30477        0.42224
H          7.01886       -1.65408       -0.44476
H         -6.09988       -3.40520       -0.06407
H         -2.71308        5.14411       -1.05460
