171
-217.84419562
P         -1.61874        0.38595       -0.34240
P          1.59574       -0.37715       -0.30592
C         -0.89577        1.33404       -1.68293
C          0.88282       -1.36739       -1.62243
C         -0.09574        0.70514       -2.63020
C          0.53419        1.49349       -3.61266
C          0.31461        2.86098       -3.62728
C         -0.50430        3.46076       -2.69392
C         -1.10336        2.69123       -1.71647
C          1.09567       -2.72432       -1.61099
C          0.51758       -3.52640       -2.57458
C         -0.28544       -2.95898       -3.54108
C         -0.51234       -1.59259       -3.56981
C          0.09722       -0.77164       -2.60219
Cl         1.62134        0.40306        2.82000
Cl        -1.58247       -0.31632        2.90805
C         -1.37565       -1.01205       -4.63372
C          1.43876        0.89083       -4.63005
H         -0.67216        4.52496       -2.72204
H         -1.73719        3.15195       -0.97643
H          1.71970       -3.15948       -0.84764
H          0.69197       -4.58993       -2.56811
H          0.79882        3.45835       -4.38140
H         -0.74700       -3.58123       -4.28917
C         -3.95419       -3.26032       -1.64318
C         -2.90296       -3.41966       -0.74894
C         -2.19030       -2.28751       -0.37426
C         -2.50838       -1.06210       -0.90384
C         -3.53987       -0.92282       -1.80009
C         -4.29944       -2.02393       -2.17650
H         -4.52614       -4.12742       -1.91446
H         -1.38666       -2.34848        0.33904
H         -3.76608        0.05618       -2.18913
C         -4.31722        2.83165        2.37486
C         -2.97995        3.19228        2.25873
C         -2.18293        2.46362        1.38564
C         -2.70134        1.40691        0.67846
C         -4.02212        1.05846        0.81641
C         -4.85880        1.76174        1.67246
H         -4.95002        3.39191        3.03548
H         -1.14009        2.70710        1.27310
H         -4.40130        0.21871        0.26157
C          4.37562       -2.82284        2.32097
C          3.02144       -3.13526        2.30855
C          2.19457       -2.40211        1.46776
C          2.70171       -1.38118        0.70252
C          4.03923       -1.07480        0.74247
C          4.90845       -1.79976        1.54700
H          5.03806       -3.37955        2.95650
H          1.14001       -2.61504        1.42264
H          4.39864       -0.25268        0.15034
C          3.89294        3.23213       -1.76650
C          4.20130        1.98662       -2.29820
C          3.46222        0.89436       -1.85801
C          2.47362        1.05819       -0.91838
C          2.18363        2.29574       -0.40107
C          2.88406        3.41634       -0.82992
H          4.47063        4.08336       -2.07623
H          3.65875       -0.09626       -2.23170
H          1.41335        2.37506        0.34622
Pd        -0.02447        0.03829        1.33477
C         -3.77882       -5.26609        0.69670
C         -2.59329       -4.80667       -0.17034
C         -1.32536       -4.78150        0.70352
C         -2.36934       -5.80767       -1.31942
H         -3.95726       -4.56067        1.50815
H         -4.69309       -5.33684        0.10837
H         -3.58567       -6.24481        1.13554
H         -0.46723       -4.43421        0.12924
H         -1.45472       -4.12674        1.56483
H         -1.09475       -5.77797        1.07992
H         -1.56217       -5.47247       -1.96956
H         -2.10443       -6.79161       -0.93280
H         -3.26434       -5.92176       -1.92950
C         -6.46791       -0.80604       -2.49346
C         -5.50427       -1.83606       -3.11159
C         -6.27469       -3.15403       -3.32217
C         -5.02162       -1.32986       -4.48153
H         -6.78891       -1.12599       -1.50229
H         -5.99251        0.16906       -2.39708
H         -7.35644       -0.68149       -3.11215
H         -6.64511       -3.54695       -2.37545
H         -7.13440       -2.99903       -3.97402
H         -5.64177       -3.90925       -3.78781
H         -4.36462       -2.06101       -4.95083
H         -5.86360       -1.15855       -5.15204
H         -4.47518       -0.39229       -4.38610
C         -2.03448        5.50076        2.08646
C         -2.36457        4.35206        3.05439
C         -1.07818        3.86900        3.75434
C         -3.32857        4.87810        4.13566
H         -1.35776        5.16767        1.30173
H         -2.93972        5.87224        1.60654
H         -1.56262        6.33189        2.61023
H         -0.64538        4.66064        4.36550
H         -1.29002        3.01871        4.40221
H         -0.32201        3.55779        3.03585
H         -4.23018        5.29848        3.69089
H         -3.61867        4.08143        4.82051
H         -2.85708        5.66576        4.72326
C         -6.42425       -0.17041        2.05176
C         -6.33222        1.34829        1.80074
C         -7.06436        1.70294        0.49560
C         -7.02687        2.07082        2.97147
H         -6.03400       -0.74127        1.21035
H         -5.85453       -0.44815        2.93827
H         -7.45857       -0.47782        2.20485
H         -6.60809        1.19976       -0.35519
H         -8.11233        1.40708        0.54078
H         -7.02235        2.77587        0.30899
H         -6.50917        1.87801        3.91098
H         -7.05932        3.14771        2.80815
H         -8.05528        1.72708        3.08215
C          3.42399       -4.74871        4.23521
C          2.42468       -4.25708        3.16989
C          2.05045       -5.43767        2.25842
C          1.16721       -3.73843        3.89710
H          4.30137       -5.20266        3.77537
H          3.75213       -3.92609        4.87044
H          2.96606       -5.50195        4.87625
H          2.93401       -5.83364        1.75812
H          1.59347       -6.24534        2.82991
H          1.34620       -5.12685        1.48873
H          0.38147       -3.46256        3.19591
H          0.76010       -4.49916        4.56278
H          1.40452       -2.85834        4.49432
C          7.21901       -2.74047        1.26352
C          6.40833       -1.48062        1.62038
C          6.75683       -1.02316        3.04805
C          6.79793       -0.35958        0.63652
H          7.02639       -3.55009        1.96628
H          6.96017       -3.09413        0.26564
H          8.28888       -2.53328        1.28105
H          6.17585       -0.14249        3.32135
H          6.54173       -1.80423        3.77640
H          7.81378       -0.77052        3.13045
H          7.86776       -0.15680        0.68389
H          6.55970       -0.64145       -0.38892
H          6.27705        0.56862        0.87103
C          5.18902        2.81872       -4.46133
C          5.37274        1.84515       -3.28110
C          5.47240        0.41294       -3.84149
C          6.68356        2.17659       -2.54479
H          4.25345        2.62647       -4.98417
H          5.17708        3.85478       -4.12575
H          6.00155        2.71448       -5.18023
H          5.66309       -0.30809       -3.04691
H          4.55419        0.12698       -4.35375
H          6.28983        0.33416       -4.55809
H          6.67382        3.19753       -2.16441
H          6.83022        1.50710       -1.69808
H          7.54167        2.07432       -3.20885
C          2.36094        5.79933       -1.43137
C          2.60540        4.81720       -0.27001
C          3.81843        5.27942        0.55608
C          1.36013        4.82085        0.63551
H          1.53357        5.46050       -2.05365
H          2.11583        6.79281       -1.05624
H          3.24051        5.89344       -2.06674
H          4.01038        4.58812        1.37653
H          4.71728        5.32722       -0.05784
H          3.64823        6.26890        0.98001
H          1.14266        5.82736        0.99256
H          0.48746        4.46258        0.09048
H          1.50865        4.18714        1.50926
H         -0.78677       -0.74322       -5.51138
H          0.98005        0.90753       -5.61968
H         -1.88713       -0.11532       -4.28098
H         -2.13571       -1.72628       -4.95087
H          1.68474       -0.14367       -4.38724
H          2.37540        1.44485       -4.68696
