111
-148.54624023
P         -2.10962        2.25027        1.40041
P          0.12197        0.17368        0.55978
C         -1.09937        1.45427        2.67544
C         -0.13653        0.54173        2.30525
C         -2.16766        4.07882        1.68086
C         -1.58586        4.83155        0.50473
C         -1.28799        1.75362        4.00958
H         -2.02689        2.48565        4.29172
C         -0.52425        1.11770        4.97302
H         -0.67218        1.34939        6.01517
C          0.42230        0.18264        4.60073
H          1.01084       -0.31934        5.35096
C          0.61515       -0.10808        3.26207
H          1.34103       -0.84530        2.95608
Pd        -1.50527        1.32377       -0.63394
Cl        -2.84817        2.80209       -1.64903
Cl        -1.04052        0.08586       -2.45007
C         -3.66470        4.35788        1.93488
C         -3.91700        1.84865        1.48244
H         -2.17430        4.65238       -0.39592
H         -1.57813        5.90964        0.68221
H         -0.56099        4.51426        0.29745
H         -3.93248        5.33344        1.50396
H         -3.84999        4.45310        3.01481
H         -4.14081        1.22191        0.60820
C         -4.57405        3.23788        1.35485
C         -4.27175        1.11949        2.76088
H         -1.57228        4.27033        2.58413
H         -5.55227        3.23118        1.85770
H         -4.78398        3.45315        0.29663
H         -5.32511        0.82982        2.77797
H         -3.66946        0.21690        2.88593
H         -4.09428        1.75562        3.62927
C         -1.17933       -4.10521       -0.27302
C         -2.07601       -3.18358        0.32612
C         -1.61757       -1.90437        0.59607
C         -0.35673       -1.51542        0.22536
C          0.47314       -2.36552       -0.45651
C          0.07703       -3.65781       -0.75666
O         -1.52208       -5.48094       -0.35690
C         -3.52178       -3.55150        0.69353
H         -2.24280       -1.18762        1.10115
H          1.43893       -2.00114       -0.75883
C          1.00662       -4.55211       -1.59174
C          4.32513        1.00562       -1.00392
C          4.07791        1.09011        0.39022
C          2.79697        0.82971        0.84783
C          1.77397        0.56022       -0.02409
C          1.98913        0.58553       -1.37706
C          3.24168        0.84538       -1.90429
O          5.65779        1.04659       -1.49360
C          5.18370        1.42301        1.40446
H          2.58294        0.82913        1.90094
H          1.14951        0.39152       -2.02109
C          3.40663        0.93003       -3.42992
C         -4.44215       -2.31531        0.57410
C         -4.08453       -4.62029       -0.26097
C         -3.56301       -4.06021        2.14222
C          1.94948       -5.32348       -0.65658
C          0.19642       -5.53469       -2.45684
C          1.85784       -3.69737       -2.55819
C         -1.12719       -6.24405        0.77598
H         -4.21616       -1.57040        1.33457
H         -4.33843       -1.84813       -0.40495
H         -5.48719       -2.59600        0.70292
H         -5.13173       -4.82844       -0.04304
H         -4.01273       -4.28584       -1.29536
H         -3.53875       -5.55649       -0.17487
H         -3.19813       -3.29675        2.82903
H         -4.57942       -4.32101        2.43602
H         -2.93944       -4.94257        2.26707
H          2.54709       -4.63551       -0.05893
H          1.39215       -5.95881        0.02771
H          2.63049       -5.95672       -1.22469
H          0.85052       -6.12174       -3.10101
H         -0.36999       -6.22984       -1.84190
H         -0.50909       -4.99645       -3.08896
H          2.41898       -4.33094       -3.24468
H          1.22319       -3.03980       -3.15183
H          2.58273       -3.08567       -2.02305
H         -2.00753       -6.67386        1.25342
H         -0.47877       -7.06024        0.45766
H         -0.59636       -5.61537        1.49200
C          6.27076       -0.23120       -1.61165
C          4.59223        2.12190        2.64991
C          5.87021        0.12383        1.85241
C          6.21894        2.38787        0.79812
C          2.11224        1.46173       -4.08769
C          4.53620        1.90347       -3.81249
C          3.70010       -0.46959       -3.99020
H          3.99018        2.98329        2.36188
H          3.96876        1.44648        3.23394
H          5.38556        2.47376        3.30905
H          5.14993       -0.55503        2.30848
H          6.32413       -0.39269        1.01016
H          6.65233        0.32741        2.58339
H          6.74253        1.93282       -0.03902
H          5.73348        3.29358        0.43623
H          6.96661        2.67543        1.53689
H          2.26586        1.64676       -5.15048
H          1.29354        0.74878       -4.00332
H          1.79925        2.39804       -3.62658
H          5.50047        1.55410       -3.45215
H          4.60900        2.01395       -4.89413
H          4.35590        2.88802       -3.38225
H          3.82862       -0.43820       -5.07180
H          2.87963       -1.15099       -3.76878
H          4.60474       -0.88796       -3.55550
H          7.17900       -0.25704       -1.00973
H          5.58893       -1.01340       -1.27538
H          6.54627       -0.41100       -2.65063
