171
-217.84650677
P         -1.58136        0.43410       -0.37349
P          1.59404       -0.39926       -0.33957
C         -0.86260        1.37387       -1.72373
C          0.88695       -1.34415       -1.69413
C         -0.07086        0.74775       -2.67922
C          0.55407        1.53709       -3.66385
C          0.33027        2.90377       -3.67846
C         -0.48331        3.50114       -2.73912
C         -1.07063        2.73099       -1.75447
C          1.09122       -2.70243       -1.70456
C          0.51431       -3.48484       -2.68557
C         -0.28765       -2.89866       -3.64151
C         -0.50868       -1.53158       -3.64766
C          0.10821       -0.72950       -2.66807
Cl         1.55663        0.33752        2.87676
Cl        -1.61932       -0.41933        2.81361
C         -1.38629       -0.93915       -4.69449
C          1.43607        0.92833       -4.69736
H         -0.65583        4.56458       -2.76891
H         -1.69554        3.19012       -1.00543
H          1.70418       -3.15381       -0.94102
H          0.68595       -4.54870       -2.69972
H          0.80305        3.50195       -4.43912
H         -0.75470       -3.50613       -4.39836
C         -3.87533       -3.28331       -1.53630
C         -2.89631       -3.37734       -0.55432
C         -2.18011       -2.22991       -0.24352
C         -2.44252       -1.04736       -0.88835
C         -3.41305       -0.96849       -1.85615
C         -4.15407       -2.09356       -2.19907
H         -4.45479       -4.15272       -1.78327
H         -1.42377       -2.25259        0.52218
H         -3.59590       -0.01712       -2.32622
C         -4.35895        2.94174        2.19529
C         -4.89564        1.92964        1.40714
C         -4.02536        1.19319        0.61599
C         -2.68109        1.46727        0.60766
C         -2.16804        2.47414        1.38686
C         -2.99786        3.22755        2.20615
H         -5.01464        3.51313        2.82347
H         -4.39869        0.38311        0.01426
H         -1.10674        2.65738        1.37680
C          4.33128       -2.99205        2.17993
C          2.96022       -3.20503        2.24933
C          2.14051       -2.41833        1.45036
C          2.67863       -1.44512        0.64472
C          4.03473       -1.23754        0.60191
C          4.89329       -2.01531        1.36768
H          4.98060       -3.59908        2.78368
H          1.07175       -2.54396        1.46735
H          4.41743       -0.45392       -0.02686
C          3.86258        3.33528       -1.50468
C          2.88365        3.42198       -0.52211
C          2.17671        2.26826       -0.21269
C          2.45686        1.08467       -0.84902
C          3.43131        1.01318       -1.81363
C          4.15794        2.14626       -2.16110
H          4.42540        4.21264       -1.76161
H          1.40595        2.28799        0.53794
H          3.62338        0.06364       -2.28354
Pd        -0.01348        0.04418        1.30172
C         -3.58204       -5.79970       -0.17136
C         -2.59377       -4.67840        0.20194
C         -2.70033       -4.42354        1.71831
C         -1.16976       -5.14231       -0.14882
H         -3.51425       -6.04738       -1.23048
H         -3.36686       -6.70745        0.39228
H         -4.60805       -5.50696        0.05107
H         -2.50970       -5.33657        2.28199
H         -1.98307       -3.67412        2.04951
H         -3.69670       -4.06730        1.97880
H         -0.90186       -6.04194        0.40492
H         -1.09192       -5.36501       -1.21241
H         -0.43724       -4.37095        0.08411
C         -5.38134       -0.66234       -3.90978
C         -5.30297       -2.03654       -3.21588
C         -6.63160       -2.28749       -2.47937
C         -5.09704       -3.11611       -4.29536
H         -4.45158       -0.42968       -4.42771
H         -6.18362       -0.64702       -4.64737
H         -5.58337        0.13087       -3.19037
H         -6.63967       -3.26822       -2.00486
H         -6.78818       -1.53960       -1.70212
H         -7.47508       -2.24127       -3.16797
H         -5.10997       -4.11702       -3.86616
H         -5.88458       -3.06920       -5.04733
H         -4.14142       -2.98188       -4.80058
C         -6.93798        1.72378       -0.03327
C         -6.38956        1.57611        1.39848
C         -7.19997        2.49618        2.33108
C         -6.56539        0.12047        1.87113
H         -6.42838        1.05287       -0.72381
H         -8.00239        1.49244       -0.06939
H         -6.80088        2.74268       -0.39484
H         -8.25783        2.23459        2.30827
H         -6.86084        2.40585        3.36285
H         -7.11140        3.53902        2.02703
H         -7.61893       -0.15711        1.89774
H         -6.05412       -0.57635        1.20773
H         -6.15511       -0.01064        2.87217
C         -1.65162        5.34347        2.25081
C         -2.37656        4.29698        3.11571
C         -1.36772        3.62172        4.06495
C         -3.44221        5.01629        3.96420
H         -1.21533        6.12782        2.86906
H         -0.84734        4.88746        1.67681
H         -2.34222        5.80984        1.54849
H         -1.85868        2.85722        4.66659
H         -0.56245        3.14018        3.51154
H         -0.91889        4.34925        4.74079
H         -2.98294        5.77109        4.60245
H         -4.17315        5.51968        3.33165
H         -3.96804        4.31425        4.61099
C          2.88482       -3.97670        4.63535
C          2.39403       -4.26540        3.20411
C          2.87409       -5.65702        2.75656
C          0.85285       -4.25485        3.21490
H          2.46820       -4.69364        5.34258
H          3.97021       -4.03528        4.70421
H          2.58238       -2.97775        4.94916
H          2.54242       -5.86954        1.74026
H          3.96143       -5.72336        2.77431
H          2.48005       -6.43492        3.41032
H          0.46450       -4.98928        3.92026
H          0.46951       -3.27782        3.50912
H          0.45451       -4.50228        2.23248
C          6.88493       -1.42207        2.76784
C          6.41411       -1.80684        1.35344
C          6.82404       -0.68360        0.37989
C          7.10353       -3.11042        0.91102
H          6.66337       -2.20995        3.48677
H          7.96018       -1.24529        2.78701
H          6.38658       -0.51305        3.10419
H          6.37635        0.26762        0.66740
H          7.90573       -0.55024        0.37574
H          6.51663       -0.91695       -0.63932
H          6.88688       -3.92686        1.59888
H          6.76248       -3.40836       -0.08032
H          8.18557       -2.98567        0.87254
C          3.65185        5.79245       -0.00994
C          2.54716        4.73752        0.19507
C          2.39875        4.48840        1.71013
C          1.22626        5.28385       -0.36902
H          3.43471        6.69541        0.56063
H          4.61864        5.41326        0.32093
H          3.73372        6.08211       -1.05714
H          3.30204        4.03342        2.11575
H          2.22303        5.42285        2.24280
H          1.56246        3.82669        1.92964
H          0.93635        6.20725        0.13200
H          1.32062        5.49151       -1.43457
H          0.42275        4.56012       -0.24032
C          5.05868        3.16519       -4.27735
C          5.30060        2.10509       -3.18602
C          5.40920        0.72416       -3.86191
C          6.62876        2.40094       -2.46549
H          5.04957        4.17139       -3.86054
H          5.84117        3.12871       -5.03514
H          4.10289        3.00108       -4.77299
H          5.63039       -0.05448       -3.13226
H          4.48420        0.46343       -4.37491
H          6.21023        0.71748       -4.60097
H          6.61533        3.38746       -2.00333
H          6.81290        1.66749       -1.68094
H          7.46669        2.36848       -3.16163
H         -0.86061       -0.86364       -5.64726
H          2.30589        1.55786       -4.88542
H         -1.72484        0.05914       -4.41396
H         -2.27235       -1.55488       -4.85081
H          0.90353        0.80594       -5.64138
H          1.80003       -0.05112       -4.38399
