111
-148.55376987
P         -2.58772        2.01923        0.30712
P          0.11981        0.39837        0.50442
C         -1.78728        1.79813        1.92021
C         -0.58021        1.13695        1.99139
C         -3.41172        3.67152        0.17510
C         -2.59828        4.64098       -0.65425
C         -2.37469        2.28086        3.07230
H         -3.32851        2.77906        3.01658
C         -1.74340        2.10747        4.29209
H         -2.20138        2.48441        5.19199
C         -0.52962        1.45040        4.35859
H         -0.03995        1.31348        5.30867
C          0.05206        0.95855        3.20389
H          0.99018        0.42675        3.23855
Pd        -1.01445        1.37701       -1.25818
Cl        -2.35555        2.23953       -2.83380
Cl         0.62332        0.67998       -2.63010
C         -4.79048        3.31414       -0.40961
C         -4.03724        0.90326        0.02276
H         -3.08855        5.61467       -0.72512
H         -1.60404        4.79128       -0.22686
H         -2.46406        4.26699       -1.66975
H         -4.73551        3.37811       -1.50517
H         -5.54172        4.05935       -0.10649
H         -3.88937        0.46214       -0.97216
C         -5.22894        1.87950        0.00343
C         -4.12080       -0.17518        1.08115
H         -3.52205        4.04613        1.20057
H         -5.67778        1.90901        1.00579
H         -6.02045        1.50408       -0.66280
H         -4.20016        0.26456        2.07707
H         -4.99153       -0.81748        0.93011
H         -3.23029       -0.80680        1.07205
C         -1.42850       -3.86400        0.08582
C         -0.83456       -3.21204       -1.02477
C         -0.38173       -1.91618       -0.85451
C         -0.43267       -1.30036        0.36726
C         -0.90185       -1.96594        1.46888
C         -1.37434       -3.26391        1.37029
O         -2.11434       -5.09437       -0.09521
C         -0.71673       -3.86233       -2.41143
H          0.00085       -1.35051       -1.68585
H         -0.91266       -1.44690        2.41095
C         -1.85495       -3.98291        2.64039
C          4.63822        0.77601        0.11407
C          4.04114       -0.51150        0.16767
C          2.66280       -0.58839        0.27661
C          1.89823        0.54076        0.41164
C          2.47972        1.77914        0.48450
C          3.85364        1.92943        0.38293
O          5.99235        0.91412       -0.28537
C          4.83257       -1.82934        0.11627
H          2.16596       -1.54279        0.24044
H          1.84170        2.63801        0.61088
C          4.43977        3.33822        0.57675
C         -0.56194       -5.38970       -2.30005
C         -1.96162       -3.51239       -3.24084
C          0.53412       -3.33692       -3.15274
C         -1.61696       -5.50066        2.54134
C         -1.07385       -3.48430        3.87755
C         -3.34839       -3.69393        2.85597
C         -3.49285       -4.94486       -0.41174
H         -0.41407       -5.84112       -3.28079
H          0.29489       -5.64372       -1.67689
H         -1.44297       -5.84716       -1.85724
H         -1.90347       -3.95073       -4.23672
H         -2.86831       -3.87788       -2.76443
H         -2.05839       -2.43258       -3.35242
H          0.69181       -3.88420       -4.08174
H          0.43727       -2.28460       -3.41514
H          1.42587       -3.45639       -2.53850
H         -0.56660       -5.71219        2.34387
H         -1.89599       -6.00251        3.46750
H         -2.20259       -5.94249        1.73901
H         -1.31441       -2.44943        4.11669
H         -1.31972       -4.08032        4.75614
H          0.00084       -3.55816        3.71295
H         -3.52117       -2.62456        2.97403
H         -3.94217       -4.03400        2.01093
H         -3.71763       -4.19507        3.75036
H         -3.76627       -3.88908       -0.43326
H         -3.69642       -5.39214       -1.38449
H         -4.09683       -5.46174        0.33389
C          6.13859        1.05040       -1.68911
C          6.33394       -1.62060        0.37981
C          4.31095       -2.78549        1.21222
C          4.63703       -2.48922       -1.25864
C          4.12732        4.19614       -0.66046
C          3.80010        3.99346        1.82103
C          5.95963        3.31298        0.81526
H          6.85956       -2.57363        0.43471
H          6.79581       -1.03579       -0.41209
H          6.48916       -1.09166        1.31949
H          3.27883       -3.08270        1.03379
H          4.90799       -3.69635        1.24898
H          4.36108       -2.31106        2.19187
H          5.00562       -1.85038       -2.05868
H          5.16910       -3.43853       -1.31457
H          3.58228       -2.68371       -1.44918
H          3.05271        4.26079       -0.82821
H          4.50993        5.20916       -0.53880
H          4.57718        3.77332       -1.55656
H          4.25405        4.96265        2.02619
H          2.73207        4.15788        1.68892
H          3.93825        3.36470        2.70018
H          6.33777        4.30860        1.04613
H          6.49095        2.95554       -0.06357
H          6.20726        2.65361        1.64639
H          5.73829        0.17268       -2.19353
H          5.59953        1.92975       -2.03741
H          7.19610        1.15538       -1.93231
