58
-89.86132462
P          1.72094       -0.33159        0.91917
C          1.86134        1.46884        0.93818
C          1.72763        2.21777        2.08611
C          1.79168        3.59746        2.01882
C          1.99416        4.22205        0.80430
C          2.13952        3.46995       -0.34357
C          2.07358        2.09112       -0.27202
H          2.17053        1.48705       -1.16075
H          1.57729        1.73024        3.03434
C          3.26360       -1.08300        0.39787
C          3.27483       -2.41484        0.05308
C          4.45585       -3.00733       -0.35793
C          5.61577       -2.26015       -0.41842
C          5.59874       -0.92388       -0.06997
C          4.41650       -0.33409        0.33959
H          4.38621        0.70891        0.61042
H          2.35816       -2.98213        0.09697
C          1.26391       -1.04913        2.55678
C         -0.23142       -1.24031        2.75979
C         -1.05939       -0.00296        2.42190
P         -1.67630       -0.11223        0.69447
C         -2.94048       -1.39498        0.57687
C         -3.18777       -1.99653       -0.63570
C         -4.15579       -2.97639       -0.74531
C         -4.88222       -3.34910        0.36714
C         -4.64322       -2.73992        1.58259
C         -3.67231       -1.75977        1.68592
H         -3.49038       -1.27770        2.63182
H         -2.63140       -1.67996       -1.50098
C         -2.33243        1.48322        0.20211
C         -1.49570        2.57525        0.20445
C         -1.97670        3.81142       -0.18609
C         -3.29447        3.94308       -0.57742
C         -4.13001        2.84310       -0.58095
C         -3.64506        1.60794       -0.19023
H         -4.28174        0.73817       -0.19553
H         -0.46622        2.45528        0.49919
Pd         0.11727       -0.37266       -0.76970
Cl         1.79506       -0.70573       -2.23105
Cl        -1.39037       -0.21765       -2.43166
H         -1.93050        0.10872        3.07083
H         -0.47540        0.91090        2.52921
H         -0.58486       -2.07680        2.13860
H         -0.42100       -1.55664        3.79792
H          1.79637       -1.99893        2.65030
H          1.68140       -0.39065        3.31994
H          1.68242        4.18528        2.91548
H          2.29756        3.95392       -1.29328
H          4.46810       -4.04873       -0.63461
H          6.50320       -0.34015       -0.11983
H         -4.34487       -3.44378       -1.69776
H         -5.21335       -3.02650        2.45108
H         -1.32165        4.66705       -0.18843
H         -5.15699        2.94498       -0.89109
H          2.04122        5.29763        0.75284
H          6.53557       -2.72019       -0.74098
H         -5.63873       -4.11258        0.28609
H         -3.67071        4.90539       -0.88418
