100
-131.98082267
C         -1.57159        3.83426       -1.45580
C         -2.33920        2.58514       -1.51822
C         -0.18581        3.53246       -1.54712
C         -0.02261        2.05493       -1.60294
C          1.12958        1.44457       -2.32775
C         -1.41536        1.48938       -1.58120
C         -1.84719        0.08613       -1.97606
C         -0.93215       -0.62150       -2.95411
Cl         0.92883       -0.49282        2.85625
Cl        -1.85462       -1.76379        2.29045
C          3.21674        0.39407       -3.87298
C          2.47752        1.45790       -4.35141
C          2.92968       -0.13644       -2.62360
C          1.46028        1.97927       -3.59225
C          1.89766        0.35792       -1.86142
H         -3.42452        2.50902       -1.60218
H          0.62362        4.26058       -1.63611
H          0.00097       -0.90751       -2.46920
H         -1.38432       -1.53483       -3.34749
H         -0.68751        0.01938       -3.80454
H          4.02463       -0.01136       -4.45990
H          2.70181        1.87926       -5.31799
H          3.54808       -0.93124       -2.24098
H          0.87952        2.80456       -3.96684
H         -2.00173        4.83954       -1.45918
P          1.75942       -0.29439       -0.18359
H         -2.84466        0.17358       -2.42785
P         -2.13240       -0.96248       -0.48596
H         -3.44732       -2.99132       -0.41450
C         -1.62749       -3.67310       -1.31596
C         -2.70365       -2.60884       -1.11091
C         -1.20871       -4.29679        0.01822
H         -3.37477        0.89975        0.33796
C         -4.95336       -0.48095       -0.21563
C         -3.56542       -0.17175        0.38208
H         -4.79814       -0.83525       -1.25038
C         -5.67318       -1.57963        0.57448
H          3.62254       -1.79882       -0.41445
H          2.51006        0.77904        1.85043
C          3.47647        3.29119        1.20447
C          2.66342        2.31263        0.33781
C          2.84270        0.86352        0.81044
C          4.33424        0.49156        0.75301
C          5.18434        1.45762        1.60444
C          4.97093        2.92121        1.17317
H          3.11174        3.24916        2.23826
H          3.31908        4.32845        0.87707
H          3.00825        2.38458       -0.70116
H          1.60274        2.58205        0.30584
H          4.49424       -0.54328        1.07872
H          4.66623        0.52804       -0.29142
H          4.90654        1.34722        2.66011
H          6.24837        1.18732        1.55208
H          5.35856        3.06054        0.15611
H          5.55504        3.60413        1.80625
C          2.72328       -4.29444       -1.07907
C          1.94799       -2.96154       -1.06509
C          2.58685       -1.96402       -0.09656
C          2.62194       -2.56049        1.31923
C          3.41943       -3.87889        1.33559
C          2.82250       -4.89281        0.33920
H          3.73257       -4.12211       -1.47280
H          2.25521       -5.00746       -1.77218
H          0.92579       -3.14224       -0.72579
H          1.85707       -2.53413       -2.07260
H          3.01893       -1.83698        2.04289
H          1.59568       -2.76023        1.64781
H          4.46321       -3.67493        1.06655
H          3.45406       -4.29999        2.35011
H          1.82378       -5.19022        0.68118
H          3.41398       -5.81926        0.32814
H         -0.75840       -3.17431       -1.77592
C         -2.10808       -4.75999       -2.28249
H         -3.54469       -0.45116        1.43542
C         -5.82294        0.77932       -0.27562
H         -3.22990       -2.41361       -2.04726
H         -0.42655       -5.04469       -0.11733
H         -2.05609       -4.79663        0.48824
H         -0.84724       -3.54971        0.72388
H         -1.33783       -5.51474       -2.44928
H         -2.98596       -5.26820       -1.88233
H         -2.38323       -4.34232       -3.25237
H         -6.61991       -1.85386        0.10640
H         -5.07299       -2.48335        0.67055
H         -5.89664       -1.23616        1.58508
H         -5.97441        1.18798        0.72400
H         -5.36341        1.55924       -0.88346
H         -6.80675        0.56590       -0.69645
Fe        -1.08828        2.66692        0.07515
C         -1.64381        4.18604        1.34256
C         -0.26694        3.81350        1.60839
C         -0.25675        2.39748        1.91594
C         -1.61959        1.90972        1.86850
C         -2.48870        3.02155        1.53598
H         -1.99586        5.19567        1.11753
H          0.59561        4.48348        1.60273
H          0.59785        1.81272        2.25692
H         -1.92780        0.90317        2.15952
H         -3.57911        2.99734        1.47006
Pd        -0.24047       -0.88625        0.95001
