171
-217.84662911
P         -1.63426        0.41712       -0.31403
P          1.62052       -0.37877       -0.35735
C         -0.91451        1.38750       -1.64455
C          0.87957       -1.31731       -1.69468
C         -0.11155        0.79063       -2.61041
C          0.52275        1.60998       -3.56394
C          0.30404        2.97720       -3.53606
C         -0.51630        3.54685       -2.58563
C         -1.11778        2.74619       -1.63495
C          1.09351       -2.67292       -1.73795
C          0.50404       -3.43630       -2.72673
C         -0.31317       -2.83304       -3.65943
C         -0.54248       -1.46734       -3.63152
C          0.07871       -0.68562       -2.63885
Cl         1.66537        0.50058        2.76208
Cl        -1.50577       -0.25679        2.91220
C         -1.41768       -0.84690       -4.66381
C          1.42298        1.03674       -4.60217
H         -0.68266        4.61165       -2.57894
H         -1.74949        3.18476       -0.87980
H          1.72558       -3.13490       -0.99649
H          0.68084       -4.49865       -2.76741
H          0.78913        3.59801       -4.27042
H         -0.78330       -3.42573       -4.42598
C         -3.77789       -3.38365       -1.49310
C         -2.80760       -3.44048       -0.49987
C         -2.13250       -2.26773       -0.18933
C         -2.43680       -1.09533       -0.83519
C         -3.40671       -1.05211       -1.80609
C         -4.09987       -2.20524       -2.15571
H         -4.31329       -4.27696       -1.75360
H         -1.37161       -2.26096        0.57170
H         -3.62487       -0.10782       -2.27532
C         -4.50280        2.83303        2.23751
C         -3.15642        3.17886        2.23721
C         -2.29952        2.44937        1.42421
C         -2.77183        1.40535        0.66860
C         -4.10207        1.06801        0.69271
C         -4.99960        1.78333        1.47465
H         -5.18757        3.38473        2.85357
H         -1.24906        2.68491        1.39395
H         -4.43251        0.23047        0.10500
C          4.30782       -2.92893        2.26120
C          2.93677       -3.15640        2.28713
C          2.13666       -2.39405        1.44662
C          2.68808       -1.42699        0.64305
C          4.04289       -1.20704        0.64006
C          4.88462       -1.96412        1.44457
H          4.94917       -3.50543        2.90090
H          1.06918       -2.53665        1.43994
H          4.43737       -0.42499        0.01673
C          3.91815        3.27244       -1.70492
C          4.23005        2.04426       -2.27490
C          3.49684        0.93566       -1.86717
C          2.50928        1.06742       -0.92217
C          2.21373        2.28825       -0.36956
C          2.90767        3.42461       -0.76409
H          4.49362        4.13452       -1.98743
H          3.69427       -0.04162       -2.27390
H          1.44297        2.34355        0.37919
Pd         0.02013        0.09134        1.28909
C         -3.53191       -5.82297        0.02238
C         -2.45111       -4.74377        0.22958
C         -2.32413       -4.48083        1.74414
C         -1.11483       -5.26710       -0.31965
H         -3.30213       -6.71636        0.60299
H         -4.50964       -5.46102        0.34013
H         -3.59708       -6.12329       -1.02298
H         -1.51090       -3.79237        1.96704
H         -3.24442       -4.05048        2.13830
H         -2.12582       -5.40618        2.28471
H         -1.19841       -5.49065       -1.38288
H         -0.32867       -4.52365       -0.19673
H         -0.80735       -6.17753        0.19445
C         -6.55528       -2.55971       -2.49166
C         -5.23227       -2.19982       -3.19259
C         -4.93274       -3.23622       -4.29209
C         -5.39181       -0.81665       -3.85347
H         -7.38597       -2.55122       -3.19712
H         -6.50751       -3.55143       -2.04319
H         -6.77799       -1.84569       -1.69929
H         -5.70842       -3.22652       -5.05764
H         -3.98016       -3.02468       -4.77576
H         -4.88262       -4.24519       -3.88486
H         -5.64912       -0.05640       -3.11622
H         -4.47466       -0.51276       -4.35665
H         -6.18719       -0.83357       -4.59845
C         -3.64018        4.86824        4.07865
C         -2.59284        4.32621        3.08696
C         -2.15534        5.46919        2.15507
C         -1.38105        3.81963        3.89509
H         -4.49313        5.29969        3.55539
H         -4.00080        4.07730        4.73610
H         -3.21114        5.65057        4.70465
H         -3.00401        5.84950        1.58684
H         -1.72885        6.29619        2.72245
H         -1.40615        5.12724        1.44296
H         -1.66161        2.96835        4.51490
H         -0.56796        3.50284        3.24373
H         -0.99357        4.60099        4.54846
C         -6.85669        1.00993        2.96767
C         -6.49199        1.42764        1.53170
C         -6.83452        0.26296        0.58091
C         -7.32644        2.65357        1.11718
H         -6.25820        0.15522        3.28242
H         -6.67753        1.82081        3.67275
H         -7.90798        0.73142        3.03846
H         -6.28985       -0.64079        0.85383
H         -7.89849        0.03011        0.62122
H         -6.59073        0.51584       -0.45082
H         -8.39125        2.42123        1.12560
H         -7.16401        3.49196        1.79340
H         -7.05971        2.97781        0.11141
C          1.55460       -5.24419        2.39907
C          2.27903       -4.17250        3.23135
C          1.26379       -3.43930        4.12997
C          3.31528       -4.86920        4.13355
H          0.77701       -4.79782        1.78292
H          2.25246       -5.75783        1.73810
H          1.08497       -5.98859        3.04182
H          0.79241       -4.12818        4.83048
H          1.75579       -2.65494        4.70454
H          0.47511       -2.97236        3.54152
H          4.04317       -5.42272        3.54068
H          3.84816       -4.14499        4.74945
H          2.82936       -5.57813        4.80385
C          7.12118       -3.05079        1.10590
C          6.40305       -1.73921        1.47339
C          6.82107       -1.29401        2.88645
C          6.83472       -0.65108        0.46995
H          6.81512       -3.39261        0.11731
H          8.20236       -2.91370        1.09589
H          6.89312       -3.84190        1.81914
H          6.58145       -2.05518        3.62802
H          7.89340       -1.10558        2.93541
H          6.30318       -0.37763        3.16897
H          7.91549       -0.51181        0.49067
H          6.55649       -0.92481       -0.54763
H          6.37518        0.30790        0.70879
C          5.22363        2.96073       -4.40066
C          5.39894        1.93456       -3.26456
C          5.48225        0.52806       -3.88942
C          6.71315        2.21795       -2.51484
H          5.22901        3.98161       -4.02138
H          6.03057        2.87563       -5.12832
H          4.28210        2.80384       -4.92501
H          5.67230       -0.22982       -3.12979
H          4.55786        0.27367       -4.40728
H          6.29404        0.47464       -4.61472
H          6.85381        1.50680       -1.70145
H          7.56984        2.13979       -3.18398
H          6.71258        3.21945       -2.08571
C          1.36064        4.77495        0.73204
C          2.61701        4.80472       -0.15987
C          2.38204        5.82497       -1.28986
C          3.81939        5.24196        0.69452
H          1.49945        4.11432        1.58746
H          1.13606        5.76887        1.11870
H          0.49418        4.43265        0.16714
H          3.26862        5.94416       -1.91110
H          1.56343        5.50445       -1.93313
H          2.12842        6.80414       -0.88400
H          3.64223        6.21667        1.14876
H          4.00370        4.52437        1.49387
H          4.72483        5.31135        0.09243
H         -1.82984        0.10172       -4.31699
H          0.93438        1.02187       -5.57736
H         -2.25500       -1.50021       -4.90946
H         -0.86193       -0.65812       -5.58316
H          1.71977        0.01637       -4.35613
H          2.33317        1.62957       -4.69316
