171
-217.84481955
P         -1.61350        0.41265       -0.39546
P          1.58092       -0.41678       -0.36264
C         -0.88172        1.36291       -1.73282
C          0.88051       -1.35725       -1.72182
C         -0.07835        0.74475       -2.68420
C          0.56348        1.54281       -3.65084
C          0.34730        2.91067       -3.65221
C         -0.47677        3.50091       -2.71782
C         -1.08289        2.72168       -1.75220
C          1.09158       -2.71398       -1.74900
C          0.51709       -3.48581       -2.73993
C         -0.28781       -2.89071       -3.68824
C         -0.51414       -1.52444       -3.67744
C          0.09954       -0.73299       -2.68759
Cl         1.59685        0.48695        2.77319
Cl        -1.55910       -0.29311        2.87192
C         -1.38848       -0.91864       -4.71931
C          1.45872        0.94357       -4.67860
H         -0.64355        4.56550       -2.73713
H         -1.71821        3.17683       -1.00999
H          1.70778       -3.17119       -0.99149
H          0.69212       -4.54890       -2.76726
H          0.83454        3.51533       -4.39849
H         -0.75180       -3.49040       -4.45310
C         -3.85136       -3.33975       -1.55424
C         -2.87084       -3.41846       -0.57253
C         -2.16799       -2.26066       -0.26865
C         -2.45590       -1.08063       -0.90821
C         -3.43474       -1.01562       -1.86853
C         -4.15461       -2.15394       -2.21287
H         -4.40976       -4.22079       -1.80823
H         -1.39662       -2.27325        0.48168
H         -3.63807       -0.06613       -2.33390
C         -4.36682        2.90860        2.20246
C         -4.90486        1.85644        1.47111
C         -4.04505        1.11552        0.67080
C         -2.71167        1.43193        0.59951
C         -2.19821        2.47770        1.32508
C         -3.01532        3.23100        2.15689
H         -5.02285        3.48191        2.82990
H         -4.40649        0.27496        0.10587
H         -1.14610        2.69519        1.25408
C          4.28352       -2.92973        2.27802
C          2.91854       -3.19677        2.27250
C          2.11115       -2.44351        1.43077
C          2.64965       -1.45388        0.64687
C          3.99724       -1.19781        0.67155
C          4.84569       -1.93554        1.48489
H          4.92203       -3.50155        2.92329
H          1.04775       -2.61240        1.40670
H          4.39017       -0.40062        0.06501
C          3.93974        3.26434       -1.51023
C          2.95443        3.37281       -0.53604
C          2.22246        2.23510       -0.22720
C          2.46993        1.04955       -0.87203
C          3.44585        0.95632       -1.83315
C          4.20631        2.07019       -2.17024
H          4.53427        4.12495       -1.75222
H          1.46934        2.26696        0.54144
H          3.61830        0.00219       -2.30150
Pd        -0.02168        0.02325        1.27020
C         -3.62446       -5.79431       -0.06116
C         -2.53380       -4.72738        0.15627
C         -2.41383       -4.46776        1.67200
C         -1.19892       -5.26465       -0.38298
H         -3.68875       -6.08710       -1.10874
H         -3.40567       -6.69349        0.51474
H         -4.59967       -5.42472        0.25556
H         -2.23104       -5.39615        2.21281
H         -1.59299       -3.79013        1.90085
H         -3.33104       -4.02582        2.06044
H         -0.90880       -6.18242        0.12814
H         -1.27437       -5.47978       -1.44855
H         -0.40409       -4.53296       -0.24599
C         -5.42242       -0.73921       -3.90669
C         -5.29646       -2.12250       -3.23879
C         -6.62177       -2.44070       -2.52242
C         -5.03740       -3.17261       -4.33566
H         -4.50003       -0.46351       -4.41679
H         -6.22242       -0.73870       -4.64691
H         -5.65476        0.03192       -3.17243
H         -6.59675       -3.43043       -2.06770
H         -6.81639       -1.71560       -1.73264
H         -7.45904       -2.41369       -3.21959
H         -5.01053       -4.18052       -3.92373
H         -5.82092       -3.14561       -5.09278
H         -4.08484       -2.98933       -4.83094
C         -6.79120        0.35229        0.66094
C         -6.39980        1.52531        1.58227
C         -7.22865        2.75803        1.17688
C         -6.72301        1.13437        3.03563
H         -6.25148       -0.55577        0.92933
H         -7.85663        0.13664        0.73984
H         -6.57796        0.58615       -0.38200
H         -8.29601        2.54258        1.22358
H         -7.03131        3.60347        1.83478
H         -6.99024        3.06342        0.15819
H         -7.77547        0.87345        3.14527
H         -6.12738        0.27511        3.34336
H         -6.50819        1.95254        3.72209
C         -2.11921        5.55935        2.00864
C         -2.41257        4.38998        2.96335
C         -1.10392        3.93038        3.63920
C         -3.37540        4.87315        4.06538
H         -1.66418        6.39496        2.54012
H         -1.43939        5.25284        1.21518
H         -3.03697        5.91421        1.54008
H         -1.27773        3.04707        4.25334
H         -0.33796        3.68250        2.90625
H         -0.70012        4.71384        4.28009
H         -2.90919        5.64810        4.67373
H         -4.28431        5.29720        3.63960
H         -3.65306        4.05233        4.72647
C          1.24685       -3.54791        4.10339
C          2.26990       -4.24613        3.18636
C          3.31169       -4.95950        4.06884
C          1.55521       -5.30090        2.32335
H          0.77815       -4.26107        4.78104
H          1.73133       -2.77782        4.70314
H          0.45711       -3.06896        3.52595
H          4.05020       -5.48112        3.46034
H          3.83118       -4.25048        4.71316
H          2.83271       -5.69840        4.71120
H          1.09816       -6.07091        2.94463
H          0.76835       -4.84728        1.72408
H          2.25698       -5.78492        1.64441
C          6.53164       -0.14335        1.95514
C          6.34405       -1.60141        1.49462
C          6.91152       -1.77073        0.07269
C          7.12872       -2.52224        2.44824
H          6.10931        0.00300        2.94904
H          7.58811        0.12142        1.99356
H          6.03821        0.55295        1.27783
H          6.42019       -1.10128       -0.63238
H          7.97902       -1.55230        0.04987
H          6.76765       -2.79175       -0.28014
H          6.77678       -2.41595        3.47419
H          7.02978       -3.56703        2.15426
H          8.19032       -2.27550        2.43727
C          3.61848        5.80878       -0.20451
C          2.66865        4.67470        0.22479
C          2.85006        4.42969        1.73519
C          1.22181        5.11424       -0.05687
H          3.40357        6.72284        0.34895
H          4.65793        5.54314       -0.01274
H          3.50798        6.03259       -1.26541
H          3.86305        4.09070        1.95076
H          2.67023        5.34221        2.30321
H          2.16049        3.66999        2.10072
H          0.97494        6.02346        0.49092
H          1.08107        5.31083       -1.11908
H          0.51400        4.34057        0.23647
C          5.18320        3.07706       -4.25867
C          5.36336        1.99544       -3.17666
C          5.42793        0.61962       -3.86875
C          6.68884        2.22739       -2.42832
H          5.20754        4.07801       -3.83005
H          5.97646        3.01760       -5.00371
H          4.23013        2.95689       -4.77216
H          5.61099       -0.17589       -3.14678
H          4.49998        0.40045       -4.39570
H          6.23711        0.59164       -4.59840
H          6.70702        3.20819       -1.95425
H          6.82744        1.47777       -1.64932
H          7.53772        2.16840       -3.10929
H         -0.85205       -0.80866       -5.66269
H          2.34005        1.56591       -4.83537
H         -1.74632        0.06628       -4.41624
H         -2.26271       -1.54331       -4.90380
H          0.94407        0.84723       -5.63550
H          1.80399       -0.04670       -4.37853
