75
-122.81214553
P          1.78987       -0.63515        0.10368
C          3.08338       -1.35859       -0.91999
C          4.37805       -1.34595       -0.45258
C          5.38807       -1.91772       -1.20496
C          5.09177       -2.50863       -2.41691
C          3.78906       -2.53581       -2.87319
C          2.78161       -1.96375       -2.11837
H          1.76042       -1.98730       -2.46252
H          3.55638       -3.00127       -3.81685
H          5.87765       -2.95318       -3.00550
H          6.40306       -1.90446       -0.84318
H          4.59102       -0.90425        0.50835
C          1.76955       -1.58137        1.63698
C          1.42991       -0.97885        2.82643
C          1.50374       -1.69080        4.00890
C          1.91223       -3.00941        3.99193
C          2.24363       -3.61561        2.79646
C          2.17433       -2.89695        1.61653
H          2.44617       -3.35348        0.67822
H          2.55972       -4.64567        2.78191
H          1.96587       -3.56809        4.91203
H          1.23405       -1.21906        4.93943
H          1.08893        0.04242        2.82132
C          2.16751        1.08505        0.49750
C          3.33536        1.72968        0.16266
C          3.50011        3.08043        0.43459
C          2.45915        3.77268        1.05285
C          1.27740        3.14455        1.37725
C          1.12603        1.77735        1.09709
O         -0.07494        1.10577        1.37507
C         -1.25248        1.79814        1.05042
C         -1.40653        3.15961        1.35603
C         -2.58249        3.79761        1.02769
C         -3.61133        3.12674        0.36687
C         -3.43398        1.78848        0.04273
C         -2.27041        1.13800        0.37974
P         -1.89134       -0.53509       -0.15353
C         -1.59676       -1.61464        1.25102
C         -1.86612       -1.18423        2.52992
C         -1.75103       -2.06556        3.58911
C         -1.37243       -3.37318        3.35716
C         -1.10520       -3.80059        2.07153
C         -1.22198       -2.91719        1.01330
H         -1.03801       -3.23992        0.00036
H         -0.80708       -4.82028        1.89145
H         -1.27828       -4.06004        4.18232
H         -1.95508       -1.73108        4.59289
H         -2.16773       -0.16226        2.69252
C         -3.32594       -1.22763       -1.00553
C         -3.48743       -1.13811       -2.36838
C         -4.60041       -1.68869       -2.97393
C         -5.55672       -2.32303       -2.20701
C         -5.40142       -2.40381       -0.83776
C         -4.28317       -1.85314       -0.23782
H         -4.14929       -1.91162        0.83076
H         -6.14830       -2.89580       -0.23661
H         -6.42684       -2.75176       -2.67690
H         -4.72431       -1.61571       -4.04198
H         -2.75385       -0.61320       -2.95381
Pd         0.06727       -0.00271       -1.40770
Cl        -1.41980        1.04371       -2.74528
Cl         1.69345        0.91966       -2.67401
H         -4.20038        1.25870       -0.49613
C         -4.87876        3.82576        0.02484
H         -5.62162        3.68788        0.81147
H         -5.29836        3.44278       -0.90636
H         -4.71628        4.89688       -0.10173
H         -2.69878        4.83787        1.27553
S         -0.06673        4.01859        2.13945
H          2.57113        4.81974        1.27227
C          4.77124        3.76653        0.08018
H          4.11723        1.19044       -0.34104
H          5.09729        3.48730       -0.92264
H          4.65596        4.85089        0.10117
H          5.56413        3.49883        0.77973
