111
-148.56024038
P         -2.47282        2.32099        0.27641
P         -0.03240        0.29720        0.46477
C         -1.68106        2.01442        1.87423
C         -0.62750        1.13024        1.95043
C         -2.86902        4.10959        0.02590
C         -1.92909        4.73304       -0.98306
C         -2.13902        2.64296        3.01418
H         -2.97313        3.32257        2.94888
C         -1.53175        2.38758        4.23166
H         -1.88752        2.87819        5.12292
C         -0.47344        1.50230        4.30598
H         -0.00095        1.30269        5.25365
C         -0.02184        0.86918        3.16176
H          0.80182        0.17374        3.20334
Pd        -1.15254        1.30165       -1.30422
Cl        -2.56432        1.93357       -2.92502
Cl         0.26030        0.21863       -2.67445
C         -4.34554        4.07580       -0.41225
C         -4.16740        1.58745        0.16940
H         -2.00282        4.22369       -1.94567
H         -2.16262        5.78747       -1.14854
H         -0.88942        4.66240       -0.65392
H         -4.38620        4.06063       -1.51018
H         -4.85667        5.00275       -0.11067
H         -4.21009        1.06156       -0.79364
C         -5.08281        2.82603        0.14771
C         -4.42463        0.63540        1.31814
H         -2.76825        4.59519        1.00494
H         -5.42468        3.03137        1.17144
H         -5.99539        2.61674       -0.43087
H         -3.68419       -0.16757        1.34188
H         -4.36538        1.15805        2.27449
H         -5.41712        0.18387        1.24929
C         -1.18982       -4.10929        0.44772
C         -0.10243       -3.66918        1.24533
C          0.23486       -2.32574        1.21185
C         -0.50982       -1.42854        0.49129
C         -1.63335       -1.83115       -0.18308
C         -2.01850       -3.16090       -0.20379
O         -1.42593       -5.49941        0.27596
C          0.71694       -4.62903        2.12312
H          1.09628       -1.96050        1.74406
H         -2.20329       -1.09190       -0.71698
C         -3.28819       -3.55727       -0.97410
C          4.44186        0.89561       -0.16253
C          3.80480       -0.26471       -0.67632
C          2.44225       -0.40754       -0.47368
C          1.73379        0.50587        0.26127
C          2.36510        1.56867        0.85357
C          3.72804        1.76632        0.70352
O          5.75828        1.22549       -0.57545
C          4.53383       -1.37657       -1.44902
H          1.90822       -1.23259       -0.91420
H          1.77566        2.25423        1.43849
C          4.38131        2.90606        1.50393
C          1.30448       -3.88517        3.34396
C         -0.16662       -5.76435        2.67157
C          1.87750       -5.21185        1.30333
C         -4.32745       -2.41370       -0.94732
C         -2.91903       -3.84588       -2.43725
C         -3.96404       -4.78722       -0.34139
C         -0.73157       -6.07428       -0.82405
H          1.77523       -4.58540        4.03367
H          2.06747       -3.16633        3.04871
H          0.52330       -3.35423        3.88743
H          0.39685       -6.40875        3.34591
H         -1.01577       -5.35861        3.22048
H         -0.55488       -6.38732        1.86954
H          2.47798       -5.89276        1.90605
H          1.51474       -5.76083        0.43808
H          2.52946       -4.41757        0.94289
H         -3.98830       -1.54454       -1.50866
H         -5.26708       -2.73512       -1.39597
H         -4.53589       -2.10551        0.07635
H         -2.47334       -2.96638       -2.90158
H         -2.19916       -4.65753       -2.50981
H         -3.79999       -4.12333       -3.01537
H         -4.18689       -4.60405        0.70922
H         -4.89793       -5.02590       -0.84971
H         -3.32594       -5.66527       -0.39818
H         -1.44772       -6.47075       -1.54348
H         -0.10381       -5.32667       -1.31067
H         -0.11155       -6.89902       -0.47294
C          5.78180        2.03343       -1.74048
C          6.06201       -1.29772       -1.28998
C          4.09481       -2.75311       -0.90305
C          4.16478       -1.28553       -2.93909
C          5.91413        2.78215        1.55402
C          3.99407        4.25734        0.88103
C          3.87807        2.86048        2.96424
H          6.46012       -0.39473       -1.74651
H          6.33871       -1.28922       -0.23631
H          6.55072       -2.14887       -1.76357
H          4.65294       -3.55740       -1.38166
H          4.27266       -2.81293        0.17029
H          3.03774       -2.94165       -1.08289
H          4.64423       -2.08098       -3.50890
H          3.08784       -1.37340       -3.07925
H          4.47644       -0.33342       -3.36397
H          6.35248        2.90530        0.56656
H          6.34867        3.54114        2.20416
H          6.20832        1.80293        1.93012
H          2.91211        4.38566        0.87086
H          4.42473        5.08390        1.44564
H          4.34666        4.33330       -0.14568
H          2.80957        3.05809        3.03176
H          4.38477        3.60875        3.57318
H          4.06841        1.88270        3.40591
H          6.81671        2.23824       -2.01535
H          5.28561        1.51914       -2.56186
H          5.26605        2.97381       -1.55407
