100
-131.97632281
C         -1.58929        3.84089       -1.35913
C         -2.31740        2.57175       -1.46900
C         -0.19519        3.55471       -1.37743
C          0.01389        2.09274       -1.56094
C          1.19058        1.55039       -2.29733
C         -1.36693        1.50371       -1.58611
C         -1.75905        0.11672       -2.06308
C         -0.82963       -0.49336       -3.09339
Cl         1.05164       -0.45676        2.73346
Cl        -1.76624       -1.61432        2.29163
C          3.28959        0.58703       -3.88260
C          2.55437        1.67749       -4.30521
C          2.99611       -0.01112       -2.66551
C          1.53029        2.15589       -3.52672
C          1.96192        0.44456       -1.88287
H         -3.40038        2.46584       -1.55831
H          0.60105        4.30286       -1.40572
H          0.10983       -0.79597       -2.63300
H         -1.26380       -1.37991       -3.56126
H         -0.59944        0.21817       -3.88980
H          4.10015        0.21356       -4.48675
H          2.78520        2.15140       -5.24554
H          3.60845       -0.82867       -2.32207
H          0.94893        2.99803       -3.86066
H         -2.04050        4.83608       -1.31757
P          1.83087       -0.28764       -0.23664
H         -2.75545        0.20128       -2.51370
P         -1.99730       -1.00422       -0.61626
H         -2.95344       -2.88411       -1.82536
C         -1.91571       -3.83403       -0.16924
C         -2.04987       -2.74157       -1.23548
C         -3.18476       -3.99918        0.66686
H         -3.31218        0.60640        0.49768
C         -4.84085       -0.40829       -0.61936
C         -3.54584       -0.41715        0.20615
H         -4.58907       -0.08090       -1.64242
C         -5.48755       -1.79051       -0.70846
H          3.56088       -1.92504       -0.59870
H          2.71779        0.59332        1.83622
C          3.59339        3.17097        1.36184
C          2.71955        2.26474        0.47573
C          2.96420        0.78244        0.78612
C          4.44687        0.44113        0.57237
C          5.35344        1.33990        1.43941
C          5.08434        2.83352        1.16996
H          3.31768        3.02397        2.41345
H          3.39771        4.23156        1.15044
H          2.96762        2.44662       -0.57732
H          1.65501        2.50863        0.56606
H          4.63590       -0.61883        0.78512
H          4.69260        0.57932       -0.48721
H          5.16816        1.12395        2.49900
H          6.41258        1.09869        1.27233
H          5.38150        3.07574        0.14181
H          5.71264        3.46547        1.81351
C          2.35085       -4.31646       -1.30417
C          1.75440       -2.89598       -1.24097
C          2.52568       -2.01525       -0.25080
C          2.54680       -2.65935        1.14416
C          3.15374       -4.07472        1.09287
C          2.38496       -4.96183        0.09466
H          3.37141       -4.26172       -1.70300
H          1.79335       -4.94385       -2.01345
H          0.71101       -2.94941       -0.91432
H          1.72953       -2.43108       -2.23584
H          3.08012       -2.01870        1.85907
H          1.52137       -2.72492        1.52485
H          4.20494       -4.00772        0.78635
H          3.16685       -4.53007        2.09301
H          1.35812       -5.10351        0.45432
H          2.82168       -5.96952        0.04986
H         -1.09810       -3.53126        0.50977
C         -1.53036       -5.17079       -0.81123
H         -3.69750       -0.96711        1.13316
C         -5.83441        0.60278       -0.03639
H         -1.22202       -2.82846       -1.93991
H         -3.46571       -3.07195        1.16281
H         -3.05363       -4.75764        1.44026
H         -4.02138       -4.31344        0.04283
H         -0.61253       -5.08883       -1.39450
H         -1.38167       -5.94776       -0.05973
H         -2.31619       -5.51163       -1.48603
H         -6.42143       -1.75563       -1.27196
H         -4.83984       -2.51526       -1.19696
H         -5.72237       -2.17025        0.28634
H         -6.09955        0.33278        0.98630
H         -5.41603        1.61020       -0.01200
H         -6.75715        0.63883       -0.61757
Fe        -1.08123        2.67243        0.15472
C         -2.58160        2.91835        1.62918
C         -1.77989        4.11741        1.48086
C         -0.39370        3.75863        1.72300
C         -0.34681        2.35794        2.09134
C         -1.69262        1.83543        1.99307
H         -3.66698        2.85608        1.53013
H         -2.15357        5.11523        1.24022
H          0.45367        4.44903        1.72342
H          0.52833        1.78979        2.40702
H         -1.97976        0.81195        2.24089
Pd        -0.19734       -0.79148        0.86955
