171
-217.84271863
P         -1.63979        0.42534       -0.42194
P          1.61023       -0.35404       -0.36475
C         -0.90089        1.40676       -1.73140
C          0.90659       -1.29708       -1.71763
C         -0.05318        0.81681       -2.66298
C          0.61006        1.64258       -3.59136
C          0.37097        3.00662       -3.57685
C         -0.49981        3.56726       -2.66656
C         -1.12761        2.76167       -1.73725
C          1.11183       -2.65456       -1.75389
C          0.54846       -3.41447       -2.75999
C         -0.22873       -2.80471       -3.72196
C         -0.44623       -1.43668       -3.70273
C          0.14164       -0.65976       -2.68706
Cl         1.51159        0.45003        2.82395
Cl        -1.56557       -0.41809        2.82278
C         -1.26522       -0.79967       -4.76990
C          1.58107        1.08685       -4.57400
H         -0.68155        4.62958       -2.67135
H         -1.79709        3.19301       -1.01089
H          1.71853       -3.12187       -0.99531
H          0.71759       -4.47831       -2.79386
H          0.88149        3.63238       -4.28946
H         -0.67340       -3.39424       -4.50587
C         -3.89065       -3.31425       -1.60783
C         -2.90324       -3.39478       -0.63300
C         -2.20373       -2.23703       -0.32113
C         -2.48315       -1.05752       -0.96449
C         -3.46635       -0.99116       -1.92126
C         -4.19678       -2.12452       -2.26000
H         -4.44677       -4.19818       -1.85306
H         -1.45487       -2.24652        0.45267
H         -3.68280       -0.04246       -2.38335
C         -4.35237        2.76029        2.36620
C         -4.88105        1.69243        1.65172
C         -4.03908        1.01376        0.77950
C         -2.73166        1.40339        0.62497
C         -2.22808        2.46419        1.33671
C         -3.02843        3.16055        2.23206
H         -4.99058        3.27805        3.05712
H         -4.39026        0.15868        0.22974
H         -1.19259        2.73376        1.21402
C          4.19970       -2.90751        2.34793
C          2.84078       -3.18626        2.26289
C          2.07632       -2.41803        1.39471
C          2.64525       -1.39431        0.67868
C          3.98450       -1.11739        0.79522
C          4.79421       -1.87899        1.62755
H          4.81683       -3.49809        2.99832
H          1.02186       -2.60421        1.28622
H          4.39140       -0.29138        0.24035
C          4.00237        3.24278       -1.69155
C          2.94519        3.43139       -0.81043
C          2.21803        2.31379       -0.42066
C          2.53215        1.07476       -0.92004
C          3.56877        0.90615       -1.80483
C          4.33360        1.99559       -2.20600
H          4.59819        4.09191       -1.97127
H          1.40554        2.39738        0.28006
H          3.77988       -0.08540       -2.16813
Pd        -0.03799        0.07887        1.23800
C         -3.48939       -5.85458       -0.31858
C         -2.59630       -4.68558        0.13874
C         -2.83946       -4.44338        1.64066
C         -1.12685       -5.07614       -0.09310
H         -3.34069       -6.07132       -1.37628
H         -3.25472       -6.76082        0.23972
H         -4.54340       -5.63064       -0.15520
H         -2.62563       -5.34059        2.22115
H         -2.20848       -3.64147        2.02107
H         -3.87668       -4.16218        1.82145
H         -0.86988       -5.97784        0.46238
H         -0.94356       -5.26704       -1.14980
H         -0.45450       -4.28090        0.22410
C         -4.80737       -1.50052       -4.61876
C         -5.34706       -2.01547       -3.27352
C         -6.40280       -1.03473       -2.73178
C         -6.02756       -3.37693       -3.51639
H         -4.06939       -2.19190       -5.02355
H         -5.61048       -1.40351       -5.34917
H         -4.33789       -0.52379       -4.51027
H         -6.79585       -1.38431       -1.77747
H         -5.97915       -0.04270       -2.57927
H         -7.23831       -0.93784       -3.42483
H         -6.46123       -3.76952       -2.59684
H         -6.83319       -3.28144       -4.24432
H         -5.31723       -4.10661       -3.90484
C         -6.74559        0.11838        0.93329
C         -6.33693        1.26284        1.88088
C         -7.27353        2.45868        1.62611
C         -6.49384        0.77723        3.33298
H         -6.13729       -0.77017        1.10156
H         -7.78704       -0.16207        1.09023
H         -6.63736        0.42138       -0.10752
H         -8.31687        2.16996        1.75244
H         -7.07095        3.27765        2.31503
H         -7.14838        2.83547        0.61113
H         -7.51411        0.44666        3.52672
H         -5.82321       -0.05839        3.53256
H         -6.25835        1.57046        4.04165
C         -2.06762        5.46493        2.07613
C         -2.42422        4.31857        3.03807
C         -1.15425        3.82814        3.76185
C         -3.40772        4.85152        4.09768
H         -1.61067        6.29753        2.61068
H         -1.36840        5.13091        1.31160
H         -2.95936        5.83500        1.57055
H         -1.38434        2.98365        4.41106
H         -0.39029        3.50496        3.05660
H         -0.72397        4.61948        4.37517
H         -2.95095        5.65066        4.68141
H         -4.30581        5.25776        3.63294
H         -3.70189        4.06239        4.78946
C          0.79833       -3.89092        3.56637
C          2.18878       -4.32630        3.05839
C          3.04015       -4.71346        4.28398
C          2.04379       -5.55023        2.13947
H          0.36257       -4.65354        4.21148
H          0.86862       -2.96522        4.13723
H          0.10402       -3.72717        2.74457
H          3.99589       -5.14296        3.98578
H          3.23313       -3.84408        4.91232
H          2.52675       -5.45825        4.89202
H          1.55385       -6.37431        2.65776
H          1.45394       -5.30538        1.25742
H          3.02007       -5.89527        1.79944
C          6.75692       -0.45262        0.86061
C          6.29470       -1.59574        1.78610
C          7.09587       -2.86152        1.42923
C          6.57984       -1.19163        3.24373
H          6.24137        0.47805        1.09707
H          7.82624       -0.27302        0.97097
H          6.56895       -0.69711       -0.18467
H          6.88153       -3.17689        0.40823
H          8.16756       -2.67953        1.50821
H          6.84984       -3.68865        2.09392
H          6.00329       -0.30796        3.51671
H          6.31307       -1.99070        3.93448
H          7.63607       -0.96431        3.38683
C          2.44255        5.80938       -1.44452
C          2.63841        4.83371       -0.26877
C          3.81321        5.30302        0.60720
C          1.35497        4.83913        0.58287
H          2.18166        6.80478       -1.08546
H          3.34807        5.89996       -2.04291
H          1.64216        5.46670       -2.09920
H          4.73780        5.35136        0.03286
H          3.62184        6.29363        1.01932
H          3.97136        4.61558        1.43802
H          1.12479        5.84599        0.93085
H          0.50456        4.48395        0.00184
H          1.46406        4.20463        1.46194
C          5.43346        2.82360       -4.31602
C          5.55128        1.84728       -3.12973
C          5.66662        0.41564       -3.68882
C          6.82608        2.16629       -2.32787
H          5.40777        3.85920       -3.97985
H          6.28219        2.71726       -4.99149
H          4.52595        2.63482       -4.88767
H          5.81468       -0.30890       -2.88835
H          4.77088        0.13846       -4.24422
H          6.51599        0.33243       -4.36674
H          6.80523        3.18642       -1.94576
H          6.92454        1.49361       -1.47656
H          7.71557        2.05849       -2.94834
H         -0.63063       -0.38707       -5.55489
H          2.53833        1.60246       -4.49819
H         -1.87221        0.01195       -4.36628
H         -1.93644       -1.52169       -5.23507
H          1.21635        1.20630       -5.59522
H          1.76679        0.02595       -4.40225
