75
-122.80760474
P          1.94436       -0.41685       -0.11030
C          3.36454       -0.99528       -1.06419
C          3.88303       -2.24717       -0.81878
C          4.98047       -2.69489       -1.53092
C          5.55686       -1.88387       -2.48761
C          5.03758       -0.62862       -2.73198
C          3.94025       -0.18582       -2.01657
H          3.51428        0.78563       -2.21206
H          5.48181        0.00414       -3.48268
H          6.41088       -2.23167       -3.04562
H          5.38429       -3.67535       -1.33865
H          3.43119       -2.87103       -0.06581
C          1.65573       -1.57381        1.22791
C          2.08287       -1.27145        2.50009
C          1.93835       -2.20389        3.51125
C          1.37396       -3.43403        3.23659
C          0.94876       -3.73252        1.95713
C          1.09069       -2.79711        0.94820
H          0.77145       -3.01741       -0.05854
H          0.50330       -4.69040        1.74465
H          1.25817       -4.16030        4.02441
H          2.26590       -1.96987        4.51077
H          2.53033       -0.30986        2.69415
C          2.29431        1.23822        0.51597
C          3.51734        1.85595        0.38535
C          3.69043        3.17490        0.78056
C          2.59106        3.87290        1.27759
C          1.36358        3.26534        1.42330
C          1.21934        1.91281        1.07510
O          0.01619        1.22290        1.26828
C         -1.17304        1.90513        0.97637
C         -1.33148        3.27700        1.22622
C         -2.50468        3.89600        0.85464
C         -3.53435        3.18783        0.23538
C         -3.37476        1.82564        0.02316
C         -2.21375        1.19264        0.40043
P         -1.83108       -0.54936        0.14352
C         -1.76110       -1.38998        1.74195
C         -1.27213       -0.75487        2.86051
C         -1.28753       -1.39389        4.08559
C         -1.79049       -2.67534        4.18518
C         -2.27400       -3.31639        3.06227
C         -2.25982       -2.66984        1.83957
H         -2.64375       -3.15798        0.95840
H         -2.66376       -4.31821        3.13737
H         -1.79970       -3.17783        5.13860
H         -0.89980       -0.89486        4.95844
H         -0.86278        0.23549        2.76817
C         -3.11738       -1.38502       -0.80344
C         -4.42294       -1.29662       -0.37633
C         -5.42018       -1.96099       -1.06708
C         -5.10062       -2.71951       -2.17543
C         -3.78736       -2.82157       -2.58869
C         -2.79274       -2.15706       -1.89528
H         -1.76360       -2.23467       -2.20658
H         -3.53638       -3.41714       -3.45101
H         -5.87666       -3.23650       -2.71594
H         -6.44360       -1.88942       -0.73729
H         -4.65453       -0.72602        0.50924
Pd        -0.04570       -0.14400       -1.39147
Cl        -1.74484        0.59963       -2.68614
Cl         1.31839       -0.07082       -3.17314
H         -4.15353        1.26726       -0.46403
C         -4.79580        3.87062       -0.15755
H         -5.53160        3.81748        0.64582
H         -5.23112        3.40918       -1.04493
H         -4.61953        4.92274       -0.38488
H         -2.62339        4.94780        1.04660
S         -0.03107        4.17285        2.03490
H          2.69765        4.90767        1.55209
C          5.00502        3.84921        0.61111
H          4.34675        1.31438       -0.03379
H          5.13739        4.64420        1.34609
H          5.82729        3.14324        0.73496
H          5.08746        4.29143       -0.38251
