171
-217.84516537
P         -1.63373        0.41242       -0.34187
P          1.63075       -0.43177       -0.37313
C         -0.90000        1.35522       -1.68474
C          0.87616       -1.36879       -1.70910
C         -0.10933        0.73397       -2.64485
C          0.52069        1.52827       -3.62197
C          0.31198        2.89724       -3.62021
C         -0.49401        3.49190       -2.67294
C         -1.09224        2.71538       -1.70008
C          1.07146       -2.72833       -1.73695
C          0.45482       -3.50053       -2.70169
C         -0.37273       -2.90247       -3.62798
C         -0.58399       -1.53395       -3.61774
C          0.06494       -0.74385       -2.64966
Cl         1.61136        0.30202        2.78750
Cl        -1.54291       -0.31403        2.84638
C         -1.47653       -0.92347       -4.64120
C          1.39054        0.92201       -4.66727
H         -0.65440        4.55749       -2.68938
H         -1.71416        3.17340       -0.94816
H          1.71050       -3.18947       -1.00161
H          0.61752       -4.56559       -2.72783
H          0.79023        3.49921       -4.37444
H         -0.86587       -3.50126       -4.37512
C         -3.91360       -3.32220       -1.48098
C         -2.93675       -3.40158       -0.49577
C         -2.23160       -2.24606       -0.19044
C         -2.49760       -1.07080       -0.84736
C         -3.46788       -1.00582       -1.81666
C         -4.20050       -2.13903       -2.15195
H         -4.48444       -4.19821       -1.72482
H         -1.48368       -2.25714        0.58387
H         -3.65629       -0.05965       -2.29473
C         -4.34868        2.99485        2.20790
C         -4.91182        1.97801        1.44621
C         -4.06151        1.20219        0.66927
C         -2.71244        1.45224        0.65059
C         -2.17364        2.46303        1.40651
C         -2.98157        3.24648        2.21971
H         -4.99864        3.60111        2.81013
H         -4.44402        0.39002        0.07735
H         -1.11099        2.62996        1.36863
C          4.41319       -2.97650        2.14182
C          3.05485       -3.27254        2.14056
C          2.22572       -2.50206        1.33654
C          2.73612       -1.46539        0.59615
C          4.07679       -1.17433        0.62436
C          4.94758       -1.93302        1.39555
H          5.07848       -3.56561        2.74435
H          1.16834       -2.70045        1.29563
H          4.43590       -0.34105        0.04716
C          3.85804        3.33337       -1.51480
C          2.89880        3.39494       -0.51118
C          2.20815        2.23081       -0.20532
C          2.47050        1.06477       -0.87992
C          3.42403        1.01715       -1.86665
C          4.14213        2.15935       -2.20279
H          4.41786        4.21619       -1.75966
H          1.47646        2.22695        0.58438
H          3.61197        0.07705       -2.35673
Pd         0.00801       -0.02899        1.24534
C         -1.17719       -5.11089        0.00308
C         -2.63123       -4.69166        0.27780
C         -3.56222       -5.84471       -0.14242
C         -2.81937       -4.43651        1.78574
H         -0.48209       -4.32393        0.29149
H         -0.91792       -6.01159        0.55916
H         -1.03095       -5.31456       -1.05701
H         -4.60632       -5.59222        0.04171
H         -3.44363       -6.07933       -1.20010
H         -3.33628       -6.74902        0.42256
H         -3.83792       -4.11153        1.99656
H         -2.62664       -5.34135        2.36179
H         -2.14213       -3.66346        2.14633
C         -5.45473       -0.72441       -3.85697
C         -5.34367       -2.10286       -3.17645
C         -6.67143       -2.39728       -2.45427
C         -5.10077       -3.16694       -4.26351
H         -4.53120       -0.46434       -4.37287
H         -6.25726       -0.72102       -4.59444
H         -5.67513        0.05639       -3.12929
H         -6.65846       -3.38325       -1.99098
H         -6.85450       -1.66272       -1.67045
H         -7.50993       -2.36527       -3.14973
H         -5.08559       -4.17096       -3.84157
H         -5.88598       -3.13756       -5.01878
H         -4.14743       -3.00108       -4.76332
C         -6.83716        1.36913        2.93002
C         -6.42620        1.72983        1.49097
C         -6.83948        0.57227        0.55973
C         -7.16569        3.00317        1.04100
H         -7.90624        1.16651        2.99176
H         -6.30433        0.48136        3.27021
H         -6.61059        2.18004        3.62126
H         -7.91682        0.41147        0.59641
H         -6.57330        0.78792       -0.47491
H         -6.35755       -0.35996        0.85401
H         -8.24451        2.84829        1.04139
H         -6.94990        3.84196        1.70167
H         -6.86562        3.28569        0.03205
C         -1.00205        3.93954        3.62671
C         -2.36592        4.37941        3.05348
C         -3.27654        4.75932        4.23807
C         -2.17270        5.60846        2.15036
H         -0.60233        4.69451        4.30340
H         -1.09954        3.00656        4.18148
H         -0.26478        3.78870        2.84023
H         -2.79147        5.49592        4.87849
H         -4.21423        5.19608        3.89645
H         -3.50488        3.88487        4.84721
H         -1.71078        6.42940        2.69850
H         -1.53653        5.36826        1.29952
H         -3.12959        5.95582        1.76114
C          1.15020       -3.97859        3.63282
C          2.46208       -4.42971        2.95721
C          3.43128       -4.89472        4.06177
C          2.17774       -5.60842        2.01154
H          0.76014       -4.75882        4.28608
H          1.31458       -3.08495        4.23451
H          0.37715       -3.75228        2.90038
H          4.33935       -5.32319        3.63878
H          3.71009       -4.06349        4.70923
H          2.96985       -5.66193        4.68343
H          1.72873       -6.44332        2.54921
H          1.49606       -5.31239        1.21559
H          3.09819       -5.96002        1.54578
C          6.83515       -0.46283        0.52780
C          6.45190       -1.63273        1.45652
C          7.24084       -2.87986        1.01695
C          6.83315       -1.25625        2.89960
H          6.32235        0.45402        0.81820
H          7.90661       -0.26819        0.57202
H          6.58291       -0.68704       -0.50853
H          8.31336       -2.68630        1.02724
H          7.04934       -3.72444        1.67767
H          6.96087       -3.17518        0.00590
H          6.26594       -0.38699        3.23196
H          6.62610       -2.07373        3.58925
H          7.89379       -1.01682        2.97369
C          2.83801        4.40135        1.78414
C          2.60270        4.67290        0.28580
C          1.13736        5.08164        0.05849
C          3.50952        5.84036       -0.14738
H          2.64658        5.29501        2.37779
H          2.18510        3.61146        2.15285
H          3.86751        4.09119        1.96149
H          0.45718        4.28517        0.35590
H          0.88632        5.97265        0.63360
H          0.95899        5.29802       -0.99410
H          3.28844        6.73663        0.43214
H          4.56087        5.59820        0.00695
H          3.36057        6.08345       -1.19929
C          5.38341        0.76927       -3.93717
C          5.26779        2.14249       -3.24692
C          6.60447        2.44833       -2.54615
C          4.99322        3.20992       -4.32300
H          5.62409       -0.01298       -3.21750
H          4.45476        0.50162       -4.43982
H          6.17403        0.77911       -4.68733
H          7.43111        2.42935       -3.25612
H          6.58865        3.43169       -2.07746
H          6.80933        1.71189       -1.76953
H          4.97293        4.21104       -3.89441
H          5.76557        3.19480       -5.09182
H          4.03342        3.03527       -4.80720
H         -0.95716       -0.81049       -5.59370
H          0.85121        0.81568       -5.60938
H         -1.82767        0.06074       -4.32820
H         -2.35405       -1.54703       -4.81250
H          1.74606       -0.06471       -4.36744
H          2.26563        1.54474       -4.85336
