75
-122.81181005
P          1.75931       -0.63967        0.09686
C          3.06197       -1.37666       -0.90959
C          4.34539       -1.38857       -0.41189
C          5.36481       -1.96653       -1.14665
C          5.08926       -2.53844       -2.37245
C          3.79773       -2.54025       -2.86008
C          2.78089       -1.96229       -2.12272
H          1.76860       -1.96771       -2.49231
H          3.58106       -2.99070       -3.81479
H          5.88242       -2.98786       -2.94743
H          6.37080       -1.97279       -0.76037
H          4.54192       -0.95997        0.55848
C          1.72714       -1.58754        1.63037
C          1.42053       -0.97636        2.82441
C          1.49046       -1.69091        4.00555
C          1.86266       -3.02015        3.98287
C          2.16156       -3.63449        2.78299
C          2.09587       -2.91361        1.60422
H          2.34343       -3.37656        0.66232
H          2.44953       -4.67269        2.76403
H          1.91328       -3.58063        4.90204
H          1.24609       -1.21263        4.93973
H          1.10863        0.05422        2.82410
C          2.16588        1.07269        0.49938
C          3.34580        1.69949        0.17315
C          3.52875        3.04822        0.44496
C          2.48310        3.76317        1.02807
C          1.29048        3.15275        1.34622
C          1.13000        1.78241        1.08674
O         -0.07459        1.12263        1.37254
C         -1.24494        1.81454        1.02517
C         -1.39491        3.18381        1.29588
C         -2.56543        3.81737        0.94054
C         -3.59673        3.13021        0.30007
C         -3.41632        1.78700       -0.00179
C         -2.25821        1.14145        0.36184
P         -1.86387       -0.54213       -0.12143
C         -1.60747       -1.58446        1.31819
C         -1.87333       -1.10706        2.58112
C         -1.79268       -1.95803        3.66794
C         -1.45291       -3.28317        3.47953
C         -1.18950       -3.75809        2.20990
C         -1.27072       -2.90460        1.12412
H         -1.08929       -3.26422        0.12321
H         -0.92177       -4.79154        2.06371
H         -1.38639       -3.94675        4.32615
H         -1.99406       -1.58656        4.65918
H         -2.14563       -0.07217        2.70986
C         -3.28041       -1.25133       -0.99130
C         -4.21633       -1.93555       -0.24766
C         -5.31931       -2.49536       -0.86683
C         -5.48205       -2.36374       -2.23121
C         -4.54871       -1.66903       -2.97362
C         -3.45077       -1.11007       -2.34872
H         -2.73736       -0.53677       -2.91340
H         -4.67904       -1.55568       -4.03738
H         -6.34042       -2.79942       -2.71609
H         -6.04892       -3.03355       -0.28432
H         -4.07910       -2.03155        0.81760
Pd         0.04317       -0.05483       -1.47059
Cl        -1.40995        1.12240       -2.72484
Cl         1.76135        0.98692       -2.50702
H         -4.17389        1.25043       -0.54623
C         -4.83486        3.83887       -0.11905
H         -5.69420        3.16711       -0.10923
H         -4.72891        4.23553       -1.12952
H         -5.05729        4.67196        0.54894
H         -2.67511        4.86688        1.14928
S         -0.05679        4.05460        2.06998
H          2.60031        4.81458        1.22276
C          4.79221        3.73042        0.05842
H          4.12061        1.14886       -0.32917
H          4.98272        4.59721        0.69259
H          5.64559        3.05733        0.15112
H          4.74391        4.07312       -0.97595
