171
-217.84076195
P         -1.46594        0.19333       -0.40369
P          1.66820       -0.70635        0.35101
C         -0.47516        1.04640       -1.64288
C          1.06024       -1.69113       -1.03567
C          0.43690        0.31325       -2.39124
C          1.23851        0.98030       -3.33751
C          1.05645        2.34010       -3.53226
C          0.12764        3.04700       -2.79688
C         -0.63590        2.39422       -1.84951
C          1.08264       -3.04954       -0.82392
C          0.58234       -3.91250       -1.77946
C          0.04235       -3.40151       -2.93982
C         -0.00355       -2.03626       -3.16641
C          0.52422       -1.15739       -2.20163
Cl         0.66011       -1.01868        3.42422
Cl        -2.33350       -1.48581        2.32953
C         -0.63012       -1.53540       -4.42048
C          2.25494        0.24286       -4.13727
H          0.00074        4.10515       -2.95752
H         -1.36660        2.93622       -1.27432
H          1.48635       -3.43274        0.10186
H          0.60661       -4.97706       -1.61322
H          1.64669        2.84495       -4.27780
H         -0.36380       -4.06697       -3.68299
C         -4.24987       -2.66606       -2.55272
C         -3.65790       -3.08080       -1.36560
C         -2.81632       -2.19023       -0.71529
C         -2.56268       -0.95104       -1.24420
C         -3.14046       -0.56361       -2.42876
C         -4.00677       -1.41453       -3.10581
H         -4.93352       -3.32359       -3.05536
H         -2.37442       -2.45654        0.22795
H         -2.89812        0.40553       -2.82895
C         -4.13343        3.27083        1.63595
C         -3.22426        2.57989        2.42505
C         -2.40048        1.65087        1.80493
C         -2.50458        1.40252        0.45624
C         -3.43327        2.07771       -0.29855
C         -4.25870        3.03745        0.27347
H         -4.76519        4.00800        2.09650
H         -1.68033        1.10892        2.38768
H         -3.50679        1.85427       -1.34778
C          5.56766       -2.60563        1.67296
C          4.65832       -2.22449        2.65289
C          3.46026       -1.66137        2.23923
C          3.18457       -1.49558        0.90692
C          4.09094       -1.88381       -0.04941
C          5.30769       -2.44614        0.31712
H          6.50583       -3.03846        1.96526
H          2.72428       -1.35917        2.96146
H          3.83622       -1.74728       -1.08675
C          2.85476        3.63233       -0.22096
C          3.58587        2.63252       -0.84895
C          3.16444        1.31987       -0.68085
C          2.06469        1.02968        0.08867
C          1.36468        2.03173        0.71985
C          1.75056        3.35885        0.57826
H          3.17335        4.64973       -0.34763
H          3.70350        0.50853       -1.13706
H          0.52085        1.77993        1.33713
Pd        -0.38802       -0.78575        1.45606
C         -4.85659       -5.31368       -1.60739
C         -3.91130       -4.45970       -0.74134
C         -4.54892       -4.27637        0.64857
C         -2.57045       -5.20432       -0.60171
H         -5.01594       -6.29265       -1.15550
H         -5.83106       -4.83704       -1.71202
H         -4.43981       -5.47300       -2.60177
H         -3.89119       -3.72092        1.31606
H         -5.48699       -3.72714        0.57202
H         -4.75770       -5.24002        1.11264
H         -2.09690       -5.32712       -1.57541
H         -1.87936       -4.65897        0.04005
H         -2.71611       -6.19403       -0.16948
C         -4.61756       -2.05290       -5.47083
C         -4.74855       -0.97496       -4.37722
C         -4.18429        0.34722       -4.93470
C         -6.23453       -0.76983       -4.03320
H         -5.11754       -1.73783       -6.38663
H         -3.57170       -2.24064       -5.70970
H         -5.06593       -2.99562       -5.16081
H         -4.69177        0.62509       -5.85836
H         -4.32295        1.16523       -4.22849
H         -3.12094        0.25773       -5.15492
H         -6.68292       -1.69349       -3.66835
H         -6.34921       -0.01382       -3.25660
H         -6.79774       -0.44504       -4.90789
C         -2.14235        1.92179        4.63500
C         -3.16968        2.83671        3.93795
C         -4.55528        2.55560        4.54881
C         -2.77770        4.30266        4.19281
H         -2.38656        0.87062        4.48240
H         -1.13573        2.09847        4.25895
H         -2.12763        2.10443        5.70923
H         -4.85952        1.52779        4.35182
H         -4.54291        2.70323        5.62854
H         -5.31486        3.21547        4.13154
H         -1.80531        4.52240        3.75473
H         -3.50324        4.98796        3.75605
H         -2.72114        4.51159        5.26094
C         -6.68503        3.62726        0.02481
C         -5.27375        3.83799       -0.55384
C         -5.28240        3.39164       -2.02956
C         -4.90291        5.33101       -0.49642
H         -6.94916        2.56990        0.01738
H         -6.75005        3.98136        1.05286
H         -7.43064        4.16567       -0.56003
H         -5.54481        2.33756       -2.11753
H         -6.01331        3.96222       -2.60237
H         -4.30814        3.54642       -2.49305
H         -3.89803        5.49264       -0.88653
H         -5.59571        5.92861       -1.08861
H         -4.92817        5.70532        0.52640
C          3.83596       -3.30470        4.76010
C          4.92564       -2.40010        4.15441
C          4.89167       -1.02098        4.83899
C          6.29974       -3.04475        4.41857
H          2.84638       -2.86387        4.64550
H          3.82700       -4.27770        4.26943
H          4.00799       -3.46407        5.82434
H          5.09581       -1.10964        5.90582
H          5.63952       -0.35744        4.40526
H          3.91758       -0.54672        4.72479
H          6.36361       -4.03265        3.96278
H          7.10556       -2.42729        4.02212
H          6.47158       -3.16364        5.48831
C          7.64711       -2.06661       -0.49987
C          6.35371       -2.87166       -0.72291
C          5.86195       -2.61461       -2.16155
C          6.64273       -4.37603       -0.56882
H          8.06490       -2.25418        0.48856
H          8.40410       -2.33205       -1.23767
H          7.45401       -0.99730       -0.58380
H          5.66258       -1.55582       -2.32553
H          6.61307       -2.92409       -2.88814
H          4.95053       -3.17450       -2.37075
H          7.36804       -4.71176       -1.30981
H          7.04500       -4.60370        0.41758
H          5.73076       -4.95801       -0.70086
C          4.45816        3.87650       -2.84654
C          4.84592        2.98924       -1.65113
C          5.55715        1.72864       -2.18220
C          5.82981        3.74761       -0.74012
H          3.96630        4.79118       -2.51753
H          5.33794        4.15830       -3.42482
H          3.77546        3.34895       -3.51063
H          5.85920        1.07614       -1.36314
H          4.91048        1.16396       -2.85243
H          6.45479        1.99605       -2.73948
H          6.09045        3.14473        0.12963
H          6.74997        3.98621       -1.27325
H          5.40115        4.68313       -0.38303
C          1.64615        5.84409        1.13549
C          1.00486        4.45926        1.34974
C          1.05071        4.13239        2.85387
C         -0.45656        4.52699        0.87653
H          2.68385        5.85186        1.46857
H          1.61598        6.13245        0.08490
H          1.11263        6.60797        1.70109
H          0.55098        3.18921        3.06805
H          2.08154        4.04856        3.19740
H          0.56345        4.91167        3.43916
H         -1.01250        5.28629        1.42597
H         -0.50649        4.77744       -0.18245
H         -0.95971        3.57402        1.02385
H         -0.77771       -0.45534       -4.39383
H          3.09472        0.88840       -4.39796
H         -1.60632       -1.99714       -4.56985
H         -0.01158       -1.77160       -5.28754
H          1.82377       -0.13220       -5.06617
H          2.65208       -0.60760       -3.58069
