59
-75.80019539
Cl         1.49885        0.70599        2.35100
P          1.61308       -0.12518       -0.77875
P         -1.58789       -0.21769       -0.84668
C          0.65846        0.34274       -2.29127
H          0.41630        1.40642       -2.21781
H          1.30457        0.21031       -3.16467
C         -0.59442       -0.48465       -2.37895
H         -0.35484       -1.54652       -2.46274
H         -1.20871       -0.22117       -3.24536
C          2.38889       -1.78475       -1.06389
H          1.85569       -2.20498       -1.92663
C          3.16307        0.86855       -0.62853
H          3.46418        0.81474        0.42467
C         -2.86901       -1.50150       -0.46153
H         -2.76822       -1.71175        0.61048
C         -2.67843        1.26593       -1.05154
H         -2.71928        1.47243       -2.12801
C          3.85402       -1.46375       -1.44482
H          4.52678       -1.93143       -0.71537
H          4.11082       -1.93956       -2.40302
C          4.13797        0.06557       -1.50783
H          4.03769        0.41715       -2.54476
H          5.17888        0.28550       -1.22421
C         -4.19324       -0.76604       -0.73656
H         -4.50970       -0.98102       -1.76659
H         -4.99278       -1.16403       -0.09319
C         -4.04492        0.76847       -0.55069
H         -4.14205        1.01734        0.51509
H         -4.86059        1.30665       -1.05713
C          2.23522       -2.69875        0.15168
H          2.60983       -3.70012       -0.10293
H          1.16589       -2.83344        0.36129
C          2.98472        2.32294       -1.04596
H          3.97130        2.80393       -1.10142
H          2.59233        2.35464       -2.07048
C         -2.69611       -2.78733       -1.26269
H         -3.60828       -3.39292       -1.16760
H         -2.62824       -2.53449       -2.32880
C         -2.13568        2.47859       -0.30639
H         -2.06829        2.23753        0.76247
H         -1.10218        2.66310       -0.62767
C          2.92922       -2.19851        1.41066
H          2.59386       -1.19635        1.67408
H          4.01226       -2.15065        1.29179
H          2.72947       -2.84318        2.26971
C          2.07857        3.10089       -0.10495
H          2.48108        3.11275        0.90966
H          1.08881        2.64794       -0.04623
H          1.94797        4.13822       -0.42121
C         -1.48916       -3.60251       -0.82700
H         -1.37519       -4.51581       -1.41540
H         -1.56776       -3.89426        0.22208
H         -0.56784       -3.03042       -0.92964
C         -2.97538        3.73037       -0.51069
H         -3.03759        3.99465       -1.56805
H         -3.99680        3.58576       -0.15430
H         -2.56252        4.59128        0.02011
Cl        -1.72984        0.21190        2.30168
Pd        -0.03456        0.08442        0.83579
