171
-217.84770824
P         -1.58227        0.50700       -0.26868
P          1.56578       -0.35092       -0.32911
C         -0.85325        1.49459       -1.58311
C          0.81928       -1.24334       -1.69470
C         -0.08517        0.90929       -2.58434
C          0.55655        1.74428       -3.51930
C          0.37986        3.11548       -3.43758
C         -0.40408        3.67442       -2.45089
C         -1.01236        2.85759       -1.51854
C          0.98337       -2.60544       -1.74898
C          0.39814       -3.33324       -2.76671
C         -0.36024       -2.68644       -3.71978
C         -0.54094       -1.31352       -3.67958
C          0.07140       -0.56927       -2.65267
Cl         1.62583        0.58675        2.89942
Cl        -1.50611       -0.24994        2.94476
C         -1.35838       -0.64914       -4.73165
C          1.43015        1.18776       -4.58865
H         -0.53562        4.74293       -2.40108
H         -1.61287        3.28643       -0.73276
H          1.57206       -3.09972       -0.99260
H          0.53427       -4.40112       -2.81625
H          0.87194        3.74822       -4.15697
H         -0.82409       -3.25091       -4.51104
C         -3.67058       -3.31308       -1.49095
C         -2.73294       -3.35718       -0.46620
C         -2.08423       -2.17652       -0.13192
C         -2.35903       -1.01382       -0.80739
C         -3.28913       -0.98462       -1.81726
C         -3.97229       -2.14122       -2.17482
H         -4.20045       -4.20859       -1.75562
H         -1.37795       -2.15580        0.68020
H         -3.48874       -0.04694       -2.30749
C         -4.59212        2.84723        2.19183
C         -5.04224        1.83268        1.35544
C         -4.09772        1.14924        0.60325
C         -2.76625        1.47245        0.68313
C         -2.33835        2.47833        1.51383
C         -3.24776        3.18647        2.28960
H         -5.29943        3.38222        2.79716
H         -4.40365        0.34145       -0.03814
H         -1.28449        2.68925        1.57109
C          4.17876       -3.16252        2.09820
C          2.80593       -3.18084        2.30820
C          2.02147       -2.33277        1.53744
C          2.59835       -1.47125        0.63633
C          3.96024       -1.44877        0.46345
C          4.78076       -2.30349        1.18806
H          4.79883       -3.83582        2.66069
H          0.95209       -2.32544        1.65150
H          4.38073       -0.75228       -0.23869
C          4.01622        3.21202       -1.65417
C          3.03574        3.39194       -0.68683
C          2.30119        2.28062       -0.29477
C          2.52373        1.05888       -0.87886
C          3.47675        0.90305       -1.85572
C          4.25379        1.98349       -2.25818
H          4.62660        4.05138       -1.93155
H          1.55349        2.35702        0.47512
H          3.60875       -0.06977       -2.29778
Pd         0.04273        0.18452        1.36571
C         -2.74445       -4.38558        1.81661
C         -2.42586       -4.63296        0.32974
C         -0.93728       -4.98799        0.16517
C         -3.26707       -5.82846       -0.15655
H         -3.79819       -4.14042        1.94747
H         -2.52585       -5.26920        2.41588
H         -2.16148       -3.55726        2.21641
H         -0.67645       -5.86549        0.75641
H         -0.70878       -5.20512       -0.87743
H         -0.29675       -4.16637        0.48053
H         -3.03457       -6.72381        0.41991
H         -4.33278       -5.63060       -0.04299
H         -3.06535       -6.04940       -1.20457
C         -6.41776       -2.50778       -2.55995
C         -5.08245       -2.14324       -3.23534
C         -4.75298       -3.17986       -4.32559
C         -5.23885       -0.76202       -3.90132
H         -6.65778       -1.79403       -1.77193
H         -7.23466       -2.50206       -3.28135
H         -6.37574       -3.49932       -2.11059
H         -5.51115       -3.17597       -5.10852
H         -3.79059       -2.96381       -4.78754
H         -4.70613       -4.18756       -3.91479
H         -5.51249       -0.00204       -3.16988
H         -4.31625       -0.45258       -4.39007
H         -6.02189       -0.78483       -4.65911
C         -6.66412       -0.04801        1.68650
C         -6.51800        1.42276        1.25214
C         -6.98796        1.57898       -0.20628
C         -7.41602        2.29236        2.15231
H         -6.08644       -0.71069        1.04289
H         -6.31029       -0.18394        2.70823
H         -7.70551       -0.36641        1.64347
H         -6.41426        0.94108       -0.87744
H         -8.03893        1.30926       -0.30882
H         -6.86894        2.60927       -0.54097
H         -8.45996        1.99218        2.06237
H         -7.13412        2.19337        3.20038
H         -7.34975        3.34386        1.87343
C         -3.14937        3.83894        4.70436
C         -2.80238        4.27974        3.27086
C         -3.52831        5.59609        2.93768
C         -1.28358        4.52902        3.19150
H         -2.82769        4.58443        5.43131
H         -4.22248        3.69521        4.82490
H         -2.65692        2.89684        4.94488
H         -4.60799        5.49105        3.03629
H         -3.21011        6.39633        3.60567
H         -3.31361        5.90501        1.91476
H         -0.99381        4.84334        2.18949
H         -0.98279        5.31474        3.88428
H         -0.72311        3.63074        3.45012
C          2.96186       -3.97597        4.69025
C          2.19648       -4.11882        3.36003
C          2.29448       -5.56807        2.85516
C          0.71659       -3.78011        3.62877
H          4.00113       -4.28570        4.59111
H          2.94975       -2.94038        5.02967
H          2.50866       -4.59076        5.46772
H          1.76274       -5.68379        1.91095
H          3.33265       -5.85539        2.69071
H          1.86211       -6.26310        3.57473
H          0.31294       -4.40605        4.42434
H          0.60249       -2.73953        3.93258
H          0.10805       -3.94877        2.74289
C          6.75174       -3.70625        0.52993
C          6.30616       -2.31468        1.01458
C          6.97403       -1.99419        2.36451
C          6.76773       -1.26639       -0.01704
H          7.83079       -3.74043        0.38056
H          6.49026       -4.47922        1.25169
H          6.27163       -3.95574       -0.41618
H          6.72358       -2.73979        3.11812
H          8.05929       -1.97067        2.26709
H          6.64666       -1.02243        2.73363
H          7.85210       -1.28087       -0.12582
H          6.33589       -1.46478       -0.99769
H          6.48042       -0.26147        0.29179
C          2.61366        5.82223       -1.16666
C          2.81708        4.77370       -0.05641
C          4.05010        5.14126        0.78691
C          1.57256        4.78761        0.85294
H          1.77352        5.54914       -1.80409
H          2.40912        6.80477       -0.74173
H          3.49676        5.91257       -1.79764
H          4.21208        4.40321        1.57231
H          4.94924        5.17843        0.17263
H          3.92463        6.11568        1.25863
H          1.40004        5.78457        1.25808
H          0.68192        4.49571        0.29704
H          1.69258        4.10784        1.69619
C          5.27393        2.91964       -4.36582
C          5.39575        1.83771       -3.27493
C          5.37430        0.45601       -3.95793
C          6.73782        2.00178       -2.53938
H          6.05743        2.80491       -5.11474
H          4.31322        2.85477       -4.87435
H          5.36402        3.92119       -3.94773
H          5.52998       -0.34395       -3.23474
H          4.42526        0.28286       -4.46429
H          6.16615        0.38079       -4.70308
H          6.80914        2.98110       -2.06707
H          6.84526        1.24744       -1.76067
H          7.57642        1.89856       -3.22776
H         -0.75879       -0.44454       -5.61943
H          0.94726        1.25913       -5.56420
H         -1.77071        0.29619       -4.37606
H         -2.19287       -1.28123       -5.03560
H          1.67249        0.14029       -4.40497
H          2.36990        1.73713       -4.64104
