75
-122.81158598
P          1.78863       -0.63941        0.11803
C          3.07789       -1.40186       -0.88249
C          4.37742       -1.36477       -0.43028
C          5.38041       -1.96987       -1.16577
C          5.07225       -2.61853       -2.34481
C          3.76460       -2.67045       -2.78455
C          2.76415       -2.06512       -2.04649
H          1.73884       -2.10748       -2.37665
H          3.52261       -3.18112       -3.70212
H          5.85271       -3.08906       -2.92027
H          6.39924       -1.93786       -0.81616
H          4.59970       -0.87944        0.50713
C          1.75488       -1.55227        1.67268
C          1.39039       -0.93048        2.84475
C          1.45154       -1.61835        4.04200
C          1.87272       -2.93292        4.05777
C          2.22940       -3.55891        2.87997
C          2.17233       -2.86409        1.68523
H          2.46303       -3.33683        0.76077
H          2.55541       -4.58592        2.89070
H          1.91649       -3.47300        4.98942
H          1.16199       -1.13120        4.95853
H          1.03980        0.08687        2.81470
C          2.16865        1.08850        0.47405
C          3.33484        1.72664        0.12146
C          3.49963        3.08296        0.36489
C          2.46228        3.78605        0.97648
C          1.28217        3.16425        1.31853
C          1.12904        1.79226        1.06383
O         -0.07070        1.12566        1.35915
C         -1.25127        1.81305        1.03576
C         -1.40300        3.17917        1.32135
C         -2.58309        3.81111        0.99616
C         -3.62390        3.12603        0.36957
C         -3.44233        1.78742        0.04912
C         -2.27452        1.14303        0.38305
P         -1.89515       -0.53246       -0.14102
C         -1.61349       -1.60864        1.26763
C         -1.91109       -1.17976        2.54070
C         -1.80117       -2.05746        3.60354
C         -1.39954       -3.35981        3.38076
C         -1.10397       -3.78558        2.10080
C         -1.21508       -2.90580        1.03897
H         -1.00751       -3.22721        0.03019
H         -0.78765       -4.80104        1.92800
H         -1.30963       -4.04376        4.20881
H         -2.02737       -1.72429        4.60300
H         -2.23087       -0.16208        2.69574
C         -3.31280       -1.21745       -1.02535
C         -4.22576       -1.96195       -0.31188
C         -5.33157       -2.49667       -0.94794
C         -5.52009       -2.27910       -2.29803
C         -4.60909       -1.52485       -3.00954
C         -3.50781       -0.99230       -2.36787
H         -2.80790       -0.37778       -2.90581
H         -4.75883       -1.34570       -4.06162
H         -6.38099       -2.69482       -2.79580
H         -6.04376       -3.08182       -0.38967
H         -4.06914       -2.12334        0.74268
Pd         0.05833       -0.03513       -1.40598
Cl        -1.36551        1.16135       -2.68637
Cl         1.74070        0.79473       -2.66601
H         -4.20776        1.25362       -0.48714
C         -4.87385        3.83268       -0.01661
H         -5.72994        3.15707        0.00652
H         -4.79176        4.23797       -1.02589
H         -5.08513        4.65930        0.66295
H         -2.69303        4.85796        1.21789
S         -0.05568        4.05321        2.07420
H          2.57643        4.83665        1.17718
C          4.76932        3.76514       -0.00192
H          4.11446        1.17746       -0.37483
H          5.52037        3.63110        0.77758
H          5.17339        3.36455       -0.93259
H          4.61592        4.83590       -0.14191
