171
-217.83975564
P         -1.59519        0.54748        0.10433
P          1.57287       -0.39942       -0.29955
C         -0.75209        1.61849       -1.07990
C          0.74432       -1.11163       -1.72337
C         -0.12576        1.15651       -2.23218
C          0.52521        2.08556       -3.06660
C          0.51753        3.42792       -2.72620
C         -0.09855        3.86522       -1.57382
C         -0.72487        2.95240       -0.74820
C          0.90016       -2.44698       -1.99792
C          0.24491       -3.00831       -3.07743
C         -0.57244       -2.22523       -3.86725
C         -0.73898       -0.87429       -3.60748
C         -0.05082       -0.29923       -2.52218
Cl         2.00444        0.36063        2.83742
Cl        -1.19602       -0.33712        3.27518
C         -1.61061       -0.05040       -4.48911
C          1.23901        1.65792       -4.30120
H         -0.09161        4.91159       -1.31620
H         -1.19741        3.28009        0.16580
H          1.54108       -3.04564       -1.37053
H          0.37304       -4.05418       -3.30331
H          1.01862        4.13205       -3.36898
H         -1.08927       -2.66290       -4.70453
C         -3.54000       -3.24212       -1.43930
C         -2.54142       -3.35494       -0.47968
C         -1.91934       -2.18999       -0.04931
C         -2.29621       -0.96954       -0.55462
C         -3.29837       -0.87603       -1.48945
C         -3.94336       -2.01636       -1.95232
H         -4.03711       -4.12779       -1.78729
H         -1.14988       -2.23132        0.70098
H         -3.58626        0.09791       -1.84332
C         -5.19632        2.91613        1.53399
C         -4.48147        2.18515        2.47400
C         -3.37416        1.47357        2.03447
C         -2.99875        1.50111        0.71594
C         -3.71906        2.23046       -0.19924
C         -4.83577        2.95748        0.19346
H         -6.06186        3.46630        1.85466
H         -2.79198        0.88422        2.71747
H         -3.39460        2.23503       -1.22578
C          4.24062       -3.37994        1.85994
C          4.79421       -2.51762        0.92330
C          3.94056       -1.64346        0.26332
C          2.59045       -1.65147        0.51540
C          2.05952       -2.52898        1.43038
C          2.88096       -3.39026        2.14702
H          4.89582       -4.04668        2.38808
H          4.33022       -0.92880       -0.43863
H          1.00108       -2.51517        1.62061
C          4.27605        3.05831       -1.40140
C          3.42925        3.18759       -0.30813
C          2.61357        2.10993        0.00973
C          2.62496        0.97615       -0.76262
C          3.45290        0.87171       -1.85413
C          4.30843        1.91513       -2.19036
H          4.94632        3.86546       -1.63260
H          1.97431        2.13834        0.87437
H          3.42878       -0.03461       -2.43483
Pd         0.18758        0.07372        1.55302
C         -2.20113       -4.61785        1.66210
C         -2.13123       -4.70511        0.12473
C         -0.69850       -5.03871       -0.32074
C         -3.06245       -5.84456       -0.33346
H         -1.93251       -5.56959        2.12009
H         -1.52597       -3.85800        2.05238
H         -3.20969       -4.36165        1.98565
H         -0.00268       -4.25868       -0.01641
H         -0.36339       -5.98286        0.10802
H         -0.64662       -5.12719       -1.40508
H         -4.09731       -5.63759       -0.06125
H         -3.00934       -5.98723       -1.41256
H         -2.77864       -6.78682        0.13523
C         -5.40475       -0.50436       -3.38899
C         -5.11206       -1.95178       -2.94626
C         -6.37754       -2.51304       -2.27117
C         -4.77544       -2.79228       -4.19166
H         -6.23015       -0.47666       -4.10019
H         -5.68407        0.11573       -2.53741
H         -4.53846       -0.05520       -3.87236
H         -6.62025       -1.94201       -1.37511
H         -7.23314       -2.46486       -2.94458
H         -6.24204       -3.55342       -1.97799
H         -4.62765       -3.84038       -3.93434
H         -5.57936       -2.74050       -4.92571
H         -3.86266       -2.43494       -4.66586
C         -3.99719        1.31601        4.81719
C         -4.92838        2.17930        3.94297
C         -6.35463        1.60725        4.03776
C         -4.90796        3.61994        4.48611
H         -2.97415        1.69048        4.78985
H         -4.32386        1.32464        5.85686
H         -3.99305        0.27921        4.48173
H         -6.39021        0.59511        3.63514
H         -6.69243        1.57098        5.07332
H         -7.06357        2.21538        3.47711
H         -3.90872        4.04727        4.40431
H         -5.59268        4.26194        3.93321
H         -5.20127        3.64547        5.53545
C         -5.06274        3.72937       -2.22131
C         -5.67012        3.77220       -0.80470
C         -5.72573        5.24110       -0.34573
C         -7.09393        3.19021       -0.86509
H         -5.03179        2.71024       -2.60589
H         -5.65702        4.32389       -2.91505
H         -4.04963        4.13141       -2.22570
H         -6.20202        5.33524        0.62936
H         -4.72165        5.65816       -0.26979
H         -6.29127        5.84900       -1.05175
H         -7.06939        2.14462       -1.17175
H         -7.58308        3.24181        0.10700
H         -7.70958        3.73738       -1.57881
C          7.03890       -2.19104        1.99160
C          6.30949       -2.52144        0.67625
C          6.71433       -1.47390       -0.37949
C          6.74063       -3.91186        0.17583
H          6.83035       -2.93556        2.75891
H          8.11804       -2.15966        1.84231
H          6.72198       -1.22040        2.37268
H          6.44515       -0.46892       -0.05477
H          7.79117       -1.48865       -0.54717
H          6.22880       -1.67188       -1.33490
H          7.81135       -3.93905       -0.02588
H          6.52055       -4.68368        0.91244
H          6.21684       -4.16857       -0.74481
C          3.38088       -4.95297        4.09478
C          2.28295       -4.27433        3.25242
C          1.40910       -5.36464        2.61502
C          1.42375       -3.40519        4.19358
H          2.94195       -5.53370        4.90601
H          3.97674       -5.63617        3.49006
H          4.04563       -4.21238        4.53919
H          0.58262       -4.92007        2.06646
H          1.98973       -5.97001        1.91914
H          0.99002       -6.02550        3.37363
H          0.57506       -2.96575        3.67150
H          1.03071       -3.99628        5.02037
H          2.01504       -2.59038        4.61062
C          4.80269        4.59314        1.24079
C          3.44266        4.47170        0.53169
C          2.32839        4.46138        1.59754
C          3.22256        5.68972       -0.38536
H          5.61872        4.64277        0.52054
H          4.84342        5.49118        1.85691
H          4.97777        3.73199        1.88547
H          1.34783        4.34291        1.13697
H          2.47406        3.65168        2.31215
H          2.32064        5.39557        2.15871
H          4.02344        5.78838       -1.11686
H          2.28293        5.59734       -0.92883
H          3.18785        6.61227        0.19384
C          5.10172        0.53180       -4.17421
C          5.32028        1.81019       -3.34141
C          6.74207        1.77384       -2.75230
C          5.18646        3.02912       -4.27485
H          5.24915       -0.36229       -3.56893
H          4.09651        0.50237       -4.59325
H          5.80752        0.48529       -5.00342
H          6.95301        2.67548       -2.17813
H          6.86228        0.91932       -2.08766
H          7.49015        1.69536       -3.54098
H          5.40229        3.95900       -3.75059
H          5.88077        2.95450       -5.11167
H          4.17935        3.10162       -4.68209
H         -2.47122       -0.62262       -4.83523
H          2.21144        2.14444       -4.37013
H         -1.06484        0.28846       -5.37041
H         -1.98629        0.82914       -3.96395
H          0.66982        1.92404       -5.19294
H          1.41006        0.58089       -4.31493
