111
-148.55433932
P         -2.53496        2.10868        0.83574
P          0.10236        0.39343        0.52140
C         -1.49792        1.78072        2.28719
C         -0.32601        1.07198        2.13493
C         -3.29289        3.79627        0.90376
C         -2.60422        4.75552       -0.04230
C         -1.87423        2.22598        3.53834
H         -2.80181        2.76137        3.65736
C         -1.06671        1.96780        4.63271
H         -1.35954        2.31536        5.60999
C          0.11177        1.26370        4.47513
H          0.73904        1.06132        5.32762
C          0.48136        0.80978        3.22174
H          1.38943        0.24402        3.08246
Pd        -1.26932        1.48100       -0.99263
Cl        -2.87299        2.38310       -2.27390
Cl         0.10973        0.80603       -2.63318
C         -4.77230        3.51756        0.57985
C         -4.06077        1.06413        0.76130
H         -1.54177        4.85144        0.19396
H         -2.67942        4.40619       -1.07274
H         -3.05331        5.75047        0.00103
H         -4.92322        3.63238       -0.50243
H         -5.41821        4.27418        1.05080
H         -4.11483        0.67856       -0.26569
C         -5.18984        2.08186        1.01011
C         -3.99969       -0.07202        1.75908
H         -3.19017        4.14141        1.94034
H         -5.43948        2.07848        2.08005
H         -6.10881        1.76834        0.49189
H         -3.15339       -0.73120        1.55439
H         -3.87937        0.30996        2.77456
H         -4.91078       -0.67439        1.73575
C         -1.21636       -3.95259        0.16836
C         -1.18634       -3.33614        1.44614
C         -0.76968       -2.01800        1.52995
C         -0.46987       -1.30062        0.40199
C         -0.60911       -1.85905       -0.84060
C         -1.01449       -3.17173       -0.99787
O         -1.40703       -5.35587        0.06092
C         -1.56224       -4.08668        2.73324
H         -0.66288       -1.53408        2.48450
H         -0.37997       -1.24619       -1.69467
C         -1.19090       -3.72730       -2.41914
C          4.49361        0.73062       -0.62971
C          3.82226       -0.51270       -0.74851
C          2.48791       -0.57094       -0.38658
C          1.84430        0.51953        0.13669
C          2.51427        1.69588        0.34712
C          3.85372        1.82160        0.01395
O          5.78799        0.89443       -1.19078
C          4.49436       -1.77722       -1.30562
H          1.92284       -1.47488       -0.52943
H          1.96829        2.52346        0.76653
C          4.57848        3.14198        0.31879
C         -0.31055       -4.76517        3.30977
C         -2.12590       -3.11139        3.79184
C         -2.65677       -5.13484        2.46223
C         -2.26639       -4.82773       -2.45779
C         -1.65457       -2.61120       -3.38394
C          0.15372       -4.27904       -2.91734
C         -0.19823       -6.10506        0.07560
H          0.10778       -5.48216        2.60750
H          0.46082       -4.02740        3.52959
H         -0.54388       -5.29539        4.23275
H         -2.95135       -2.52963        3.38311
H         -2.49937       -3.65615        4.65865
H         -1.36457       -2.42139        4.15254
H         -3.53186       -4.66780        2.01149
H         -2.30539       -5.90884        1.78434
H         -2.96974       -5.62244        3.38514
H         -1.97586       -5.68855       -1.86105
H         -3.21157       -4.45370       -2.06572
H         -2.43533       -5.17505       -3.47675
H         -2.53751       -2.10464       -2.99510
H         -0.87680       -1.86637       -3.54503
H         -1.90780       -3.02385       -4.36012
H          0.06190       -4.67912       -3.92671
H          0.90938       -3.49399       -2.93343
H          0.51754       -5.07469       -2.27137
H          0.65887       -5.44273        0.20438
H         -0.22637       -6.82643        0.89215
H         -0.09500       -6.65404       -0.86016
C          5.77884        1.33663       -2.54245
C          4.29146       -1.82789       -2.82767
C          5.99543       -1.80495       -0.96641
C          3.86839       -3.04746       -0.68377
C          6.07222        2.90365        0.60580
C          4.41391        4.09814       -0.87226
C          3.98157        3.81284        1.57696
H          3.22990       -1.83415       -3.07414
H          4.73746       -0.96358       -3.31381
H          4.74268       -2.72408       -3.25269
H          6.45756       -2.73050       -1.30887
H          6.52428       -0.97990       -1.43679
H          6.14683       -1.72802        0.10975
H          4.42585       -3.93667       -0.97726
H          3.87710       -2.99108        0.40441
H          2.84018       -3.19435       -1.01099
H          6.19744        2.19107        1.42035
H          6.58583        2.50660       -0.26614
H          6.57021        3.83130        0.88682
H          4.90797        5.05021       -0.68021
H          4.83990        3.67540       -1.77894
H          3.35969        4.29690       -1.06373
H          4.57274        4.68015        1.87013
H          3.96726        3.11824        2.41650
H          2.96516        4.16324        1.40414
H          6.28148        0.60226       -3.17160
H          4.75402        1.47307       -2.89029
H          6.31889        2.27989       -2.62256
