111
-148.55218354
P         -1.60414        2.72915       -0.31696
P         -0.46977       -0.11294        0.46988
C         -1.72027        2.15359        1.40218
C         -1.28357        0.88770        1.73001
C         -0.37922        4.11217       -0.42071
C          0.80777        3.71402       -1.27157
C         -2.20029        2.98986        2.39015
H         -2.49633        3.99499        2.13910
C         -2.27000        2.54400        3.69871
H         -2.64972        3.19575        4.46859
C         -1.84488        1.26955        4.02085
H         -1.89200        0.92505        5.04079
C         -1.33808        0.44285        3.03455
H         -0.96410       -0.53983        3.27565
Pd        -1.15334        0.80837       -1.53595
Cl        -2.24977        1.74182       -3.25188
Cl        -0.48371       -1.07610       -2.56202
C         -1.20391        5.28345       -0.99168
C         -3.12966        3.61035       -0.89190
H          1.33366        2.85692       -0.84596
H          0.48526        3.43300       -2.27623
H          1.52248        4.53460       -1.36841
H         -1.00687        5.35827       -2.06986
H         -0.86066        6.23760       -0.56432
H         -3.24141        3.35344       -1.95295
C         -2.73025        5.09090       -0.76187
C         -4.37121        3.20401       -0.12679
H         -0.07096        4.32206        0.61203
H         -3.00269        5.44785        0.24063
H         -3.31442        5.70741       -1.46220
H         -4.28477        3.45418        0.93060
H         -5.25871        3.71235       -0.51036
H         -4.54186        2.12725       -0.19539
C         -1.08115       -4.61233        0.86983
C          0.16995       -4.10521        0.43080
C          0.31730       -2.73296        0.32293
C         -0.68854       -1.87658        0.68686
C         -1.85789       -2.35830        1.21587
C         -2.06579       -3.71966        1.37184
O         -1.37645       -5.99288        0.73167
C          1.37424       -4.98523        0.05608
H          1.22818       -2.31682       -0.06960
H         -2.61901       -1.65332        1.50526
C         -3.34102       -4.17431        2.10252
C          3.82031        1.38574        0.11571
C          3.30774        0.49001       -0.85705
C          2.00301        0.05110       -0.71885
C          1.24946        0.39202        0.37278
C          1.77200        1.18159        1.36289
C          3.06564        1.66884        1.28274
O          5.06776        2.03072       -0.09786
C          4.11537        0.03369       -2.08149
H          1.53255       -0.52527       -1.49565
H          1.13998        1.43915        2.19432
C          3.60389        2.54010        2.42794
C          1.21952       -6.43412        0.54958
C          1.55083       -4.97772       -1.47173
C          2.65134       -4.41879        0.71568
C         -4.55923       -3.96573        1.18813
C         -3.27155       -5.64819        2.53907
C         -3.52222       -3.33318        3.38590
C         -1.97933       -6.30205       -0.51391
H          2.12275       -7.01295        0.35802
H          1.02160       -6.45618        1.62065
H          0.39550       -6.93584        0.04800
H          1.69262       -3.96316       -1.84252
H          2.41760       -5.56816       -1.76740
H          0.67649       -5.39171       -1.97021
H          3.50749       -5.06437        0.52151
H          2.90032       -3.42922        0.33682
H          2.52497       -4.34376        1.79531
H         -4.65319       -2.92009        0.89687
H         -4.47480       -4.55700        0.27849
H         -5.47958       -4.25731        1.69350
H         -3.24318       -6.31345        1.67938
H         -2.37648       -5.83135        3.13252
H         -4.13939       -5.92180        3.13870
H         -3.69401       -2.28192        3.16096
H         -4.37663       -3.68493        3.96358
H         -2.63764       -3.40211        4.01847
H         -1.31745       -6.01687       -1.33006
H         -2.17317       -7.37372       -0.56367
H         -2.91800       -5.76093       -0.61957
C          4.97411        3.25944       -0.80869
C          3.86607        1.00805       -3.24286
C          5.61883       -0.04333       -1.76064
C          3.67904       -1.38216       -2.52403
C          5.12313        2.35902        2.59684
C          3.27129        4.01272        2.14207
C          2.95107        2.14219        3.77166
H          4.17554        2.01795       -2.98466
H          4.41653        0.70405       -4.13271
H          2.80657        1.04134       -3.49618
H          6.18189       -0.42625       -2.61141
H          6.02352        0.93426       -1.51206
H          5.79609       -0.70303       -0.91188
H          4.32867       -1.75766       -3.31423
H          3.72992       -2.08092       -1.68980
H          2.66336       -1.38900       -2.91636
H          5.49349        2.92937        3.44833
H          5.36854        1.30993        2.75854
H          5.66388        2.69554        1.71598
H          3.63316        4.65738        2.94259
H          3.72345        4.34655        1.21140
H          2.19416        4.15409        2.05579
H          1.89218        2.39564        3.79697
H          3.42416        2.66666        4.60156
H          3.05311        1.07213        3.95045
H          5.55686        3.19725       -1.72753
H          3.93474        3.48063       -1.05263
H          5.38395        4.06585       -0.20077
