111
-148.54868068
P         -2.66719        1.89327        0.06040
P          0.13040        0.45708        0.38209
C         -1.84261        1.88507        1.67631
C         -0.59277        1.31666        1.79340
C         -3.64854        3.44538       -0.18223
C         -2.90704        4.48421       -0.99450
C         -2.44992        2.44050        2.78485
H         -3.43689        2.86350        2.69834
C         -1.79668        2.43414        4.00527
H         -2.27076        2.86826        4.87039
C         -0.54077        1.86958        4.11734
H         -0.03407        1.86105        5.06832
C          0.06050        1.30255        3.00841
H          1.03000        0.83511        3.08361
Pd        -1.07958        1.18319       -1.46626
Cl        -2.16803        2.22619       -3.11745
Cl         0.56800        0.28964       -2.71313
C         -4.94582        2.91684       -0.81926
C         -4.00973        0.62923       -0.12903
H         -2.68875        4.11467       -1.99603
H         -3.49488        5.39828       -1.10498
H         -1.95509        4.74680       -0.52737
H         -4.82071        2.89876       -1.91087
H         -5.77928        3.60980       -0.62697
H         -3.78298        0.08194       -1.05390
C         -5.27935        1.48491       -0.30983
C         -4.05024       -0.31197        1.05513
H         -3.86019        3.83446        0.82151
H         -5.79842        1.55416        0.65589
H         -5.98613        0.98288       -0.98761
H         -4.20780        0.24034        1.98341
H         -4.85829       -1.04101        0.95960
H         -3.11194       -0.86063        1.15606
C         -1.36266       -3.84570        0.57275
C         -0.86013       -3.32995       -0.64891
C         -0.41030       -2.02216       -0.66900
C         -0.36886       -1.26507        0.47143
C         -0.74117       -1.80037        1.67698
C         -1.20961       -3.10022        1.76963
O         -2.06269       -5.08118        0.59032
C         -0.84271       -4.13965       -1.95413
H         -0.10758       -1.56073       -1.59155
H         -0.69041       -1.17389        2.54973
C         -1.59218       -3.65987        3.14840
C          4.65722        0.91819        0.12559
C          3.86507        2.00078        0.59197
C          2.49420        1.81968        0.68193
C          1.90576        0.65054        0.27353
C          2.65389       -0.34746       -0.29369
C          4.02676       -0.22722       -0.42891
O          6.06642        0.94432        0.28645
C          4.44171        3.36824        0.99533
H          1.86584        2.59595        1.08477
H          2.14920       -1.23161       -0.64354
C          4.76659       -1.32311       -1.21460
C         -0.69503       -5.64655       -1.67663
C         -2.13813       -3.86724       -2.73368
C          0.36113       -3.72617       -2.83131
C         -0.71535       -3.02965        4.25437
C         -3.06338       -3.32840        3.44194
C         -1.36861       -5.18171        3.21081
C         -3.46039       -4.95270        0.35992
H         -0.61604       -6.21020       -2.60590
H          0.19851       -5.84152       -1.08453
H         -1.54907       -6.03549       -1.12823
H         -3.01329       -4.15707       -2.15654
H         -2.23147       -2.80664       -2.96653
H         -2.15362       -4.42145       -3.67171
H          0.26225       -2.70720       -3.20201
H          1.29097       -3.79814       -2.26799
H          0.44655       -4.37567       -3.70210
H          0.34290       -3.13540        4.01700
H         -0.93309       -1.97103        4.38820
H         -0.89362       -3.51588        5.21323
H         -3.36319       -3.71331        4.41629
H         -3.22318       -2.25045        3.44223
H         -3.72219       -3.76083        2.69263
H         -0.33768       -5.42867        2.95950
H         -1.57675       -5.56795        4.20830
H         -2.01671       -5.70670        2.51348
H         -4.00939       -5.37743        1.20024
H         -3.73179       -3.90284        0.24165
H         -3.73637       -5.50155       -0.54025
C          6.48795        0.36885        1.51165
C          3.59050        4.49255        0.36478
C          4.40428        3.50542        2.52621
C          5.88418        3.56456        0.49693
C          6.20678       -0.91939       -1.57439
C          4.78887       -2.61955       -0.38829
C          4.02376       -1.57925       -2.54467
H          3.53109        4.36885       -0.71618
H          2.57594        4.50293        0.75934
H          4.02674        5.47028        0.56782
H          5.00834        2.73646        3.00414
H          4.78688        4.47636        2.83980
H          3.38573        3.40871        2.90106
H          6.23947        4.57288        0.70813
H          6.56579        2.86799        0.97951
H          5.94471        3.40029       -0.57834
H          6.67568       -1.66558       -2.21540
H          6.21811        0.03551       -2.09873
H          6.82193       -0.81751       -0.68352
H          5.29131       -3.41916       -0.93198
H          5.31263       -2.47394        0.55489
H          3.77758       -2.95429       -0.15921
H          3.01974       -1.96500       -2.37946
H          4.55676       -2.30758       -3.15518
H          3.93599       -0.65726       -3.11859
H          6.08049        0.93369        2.34865
H          6.14009       -0.66095        1.58006
H          7.57687        0.38653        1.56142
