111
-148.55395807
P         -2.58177        2.05471        0.15542
P          0.08622        0.39617        0.53613
C         -1.86501        1.86799        1.81202
C         -0.67536        1.18890        1.96360
C         -3.35866        3.72062       -0.06453
C         -2.49347        4.63697       -0.90186
C         -2.50049        2.39496        2.91831
H         -3.44106        2.90719        2.79971
C         -1.93443        2.24792        4.17307
H         -2.42991        2.65956        5.03718
C         -0.73784        1.57271        4.32014
H         -0.29893        1.45626        5.29737
C         -0.10823        1.03640        3.21130
H          0.81700        0.49007        3.30914
Pd        -0.94927        1.32532       -1.30915
Cl        -2.23691        2.13256       -2.95932
Cl         0.72216        0.56487       -2.60401
C         -4.72696        3.37723       -0.68149
C         -4.04412        0.96418       -0.15898
H         -2.95511        5.61941       -1.02504
H         -1.50984        4.77810       -0.44764
H         -2.33669        4.22123       -1.89776
H         -4.63726        3.40825       -1.77616
H         -5.46950        4.14756       -0.42313
H         -3.87021        0.49936       -1.13879
C         -5.21173        1.96549       -0.24233
C         -4.18980       -0.09011        0.91686
H         -3.49139        4.13606        0.94241
H         -5.69002        2.03359        0.74443
H         -5.99102        1.58899       -0.92224
H         -4.29502        0.37155        1.90037
H         -5.06879       -0.71624        0.74698
H         -3.31383       -0.74095        0.95243
C         -1.45104       -3.87633        0.16954
C         -0.77733       -3.26715       -0.91963
C         -0.33983       -1.96375       -0.76879
C         -0.47033       -1.30334        0.42355
C         -1.01884       -1.92662        1.51331
C         -1.49006       -3.22620        1.42991
O         -2.12272       -5.11436       -0.01244
C         -0.54835       -3.97420       -2.26404
H          0.09363       -1.42797       -1.59509
H         -1.09274       -1.37280        2.43240
C         -2.07027       -3.89387        2.68645
C          4.61212        0.78172        0.25508
C          4.00174       -0.48974        0.10743
C          2.62295       -0.56773        0.20191
C          1.86804        0.53638        0.49887
C          2.46047        1.74758        0.74255
C          3.83664        1.89483        0.67090
O          5.98840        0.94909       -0.05311
C          4.79792       -1.76722       -0.20088
H          2.11426       -1.49829        0.02233
H          1.82615        2.58515        0.97760
C          4.46085        3.25866        1.00539
C          0.75768       -3.47436       -2.92406
C         -0.40048       -5.49472       -2.07604
C         -1.72305       -3.66553       -3.20458
C         -1.38984       -3.34390        3.96067
C         -3.57581       -3.59960        2.77092
C         -1.82713       -5.41392        2.66811
C         -3.47027       -4.98085       -0.44724
H          0.68124       -2.43416       -3.23664
H          1.59796       -3.56458       -2.23648
H          0.98965       -4.05876       -3.81404
H         -0.17633       -5.98657       -3.02225
H          0.40591       -5.71796       -1.37823
H         -1.31242       -5.93722       -1.68350
H         -1.58376       -4.14403       -4.17357
H         -2.66436       -4.01639       -2.78813
H         -1.81297       -2.59177       -3.36807
H         -1.64752       -2.30064        4.13751
H         -1.70591       -3.90422        4.84030
H         -0.30555       -3.42236        3.88567
H         -4.01552       -4.06499        3.65267
H         -3.75623       -2.52672        2.83161
H         -4.10090       -3.97471        1.89579
H         -2.17913       -5.87838        3.58891
H         -2.34826       -5.88897        1.84065
H         -0.76474       -5.63131        2.56293
H         -3.73813       -3.92742       -0.53900
H         -3.59488       -5.47245       -1.41189
H         -4.13457       -5.46373        0.26930
C          6.23816        1.28720       -1.41178
C          4.90019       -1.94316       -1.72370
C          6.20324       -1.71294        0.42496
C          4.08975       -3.00732        0.39200
C          4.52151        4.11573       -0.26806
C          3.61095        4.00227        2.06089
C          5.87055        3.09379        1.60201
H          5.44233       -2.85395       -1.97658
H          3.90853       -2.00432       -2.17144
H          5.41789       -1.10477       -2.18346
H          6.74289       -2.64479        0.25786
H          6.79729       -0.90849       -0.00109
H          6.13821       -1.54648        1.49968
H          4.71288       -3.89524        0.28757
H          3.88407       -2.86576        1.45269
H          3.14893       -3.21727       -0.11437
H          4.94537        5.09747       -0.05843
H          5.13236        3.64260       -1.03304
H          3.52431        4.25967       -0.68328
H          3.43980        3.37294        2.93391
H          4.11559        4.90845        2.39528
H          2.64430        4.30450        1.66089
H          5.84225        2.45106        2.48124
H          6.28563        4.05669        1.89868
H          6.55553        2.64792        0.88523
H          6.76898        2.23782       -1.46046
H          6.86586        0.52331       -1.87024
H          5.29965        1.36530       -1.96225
