45
-71.81255611
C          1.25154        0.69781        2.57973
P          1.26915        0.65227        0.75770
P         -1.41041        0.26946       -0.96341
C         -1.64719       -0.12164       -2.72783
Cl         1.37892       -2.47774        1.35283
H          0.22717        0.75851        2.93641
H         -2.36991        0.56008       -3.16687
Cl        -1.08854       -2.88389       -0.89229
C          0.40974        2.08179        0.06810
C         -0.70033        1.91078       -0.73025
C         -1.32093        3.00429       -1.29946
C         -0.83184        4.27629       -1.05928
C          0.26964        4.44952       -0.24441
C          0.89121        3.35029        0.32142
H         -2.19128        2.85764       -1.91917
H         -1.31597        5.13139       -1.50159
H          0.64738        5.44002       -0.05091
H          1.75217        3.47349        0.95913
Pd         0.06792       -1.20472        0.04991
H         -2.01176       -1.13937       -2.83421
H          1.80330        1.56335        2.93503
H         -0.70282       -0.02752       -3.25636
C         -5.29938       -0.10756        1.38598
C         -4.70453       -1.23014        0.84562
C         -3.52499       -1.10795        0.13548
C         -2.94764        0.12898       -0.03714
C         -3.53568        1.24901        0.50701
C         -4.71516        1.13252        1.21982
H         -6.21814       -0.19987        1.94188
H         -5.15379       -2.20016        0.98173
H         -3.03210       -1.97700       -0.26684
H         -3.06805        2.21074        0.37819
H         -5.17623        2.00866        1.64543
C          5.53661        0.35943       -0.83030
C          5.00336       -0.66649       -0.07633
C          3.70664       -0.57194        0.39322
C          2.94979        0.54375        0.11713
C          3.47788        1.56358       -0.64338
C          4.77379        1.47363       -1.11799
H          6.54685        0.28812       -1.19909
H          5.59260       -1.54237        0.14042
H          3.26571       -1.38004        0.95196
H          2.87391        2.42523       -0.87188
H          5.18680        2.27263       -1.71165
H          1.71126       -0.20272        2.97683
