59
-75.80152930
Cl         1.53162        0.71692        2.43615
P          1.57445        0.15081       -0.80974
P         -1.56440       -0.31697       -0.73493
C          0.58320        0.24455       -2.36465
H          0.25949        1.28022       -2.49300
H          1.23347        0.00040       -3.21028
C         -0.60489       -0.66912       -2.27440
H         -0.28134       -1.71207       -2.23451
H         -1.27362       -0.56928       -3.13489
C          2.73831       -1.29712       -0.77880
H          2.70646       -1.73454       -1.78393
C          2.80251        1.53860       -0.68886
H          2.74653        1.90128        0.34488
C         -2.78148       -1.67010       -0.36058
H         -2.69502       -1.86395        0.71557
C         -2.73843        1.11144       -0.92524
H         -2.73922        1.36228       -1.99285
C          4.10951       -0.64946       -0.50824
H          4.32469       -0.71953        0.56702
H          4.90763       -1.22267       -1.00402
C          4.14854        0.83845       -0.93883
H          4.38788        0.90302       -2.00929
H          4.96009        1.37346       -0.42230
C         -4.13853       -1.02165       -0.68067
H         -4.41047       -1.26279       -1.71757
H         -4.93065       -1.46408       -0.05747
C         -4.09531        0.51702       -0.50422
H         -4.27415        0.76425        0.55139
H         -4.91338        0.99940       -1.06054
C          2.37688       -2.34781        0.26818
H          2.29905       -1.85688        1.24725
H          3.21454       -3.05241        0.36639
C          2.52476        2.68146       -1.66048
H          2.55832        2.29047       -2.68569
H          1.49812        3.04067       -1.52236
C         -2.52391       -2.95282       -1.14553
H         -2.58667       -2.72965       -2.21851
H         -1.49218       -3.28496       -0.98001
C         -2.35930        2.33533       -0.09523
H         -3.19894        3.04427       -0.10606
H         -2.25550        2.03073        0.95437
C          1.10100       -3.10893       -0.04272
H          0.88731       -3.87583        0.70539
H          1.16088       -3.60312       -1.01426
H          0.24395       -2.43747       -0.07053
C          3.49807        3.84084       -1.50705
H          3.27649        4.65665       -2.19901
H          4.52609        3.52505       -1.69311
H          3.46555        4.25007       -0.49551
C         -3.48730       -4.07358       -0.78385
H         -3.42614       -4.31698        0.27858
H         -3.28033       -4.98883       -1.34326
H         -4.52139       -3.79185       -0.98995
C         -1.09588        3.02977       -0.56915
H         -0.86968        3.91996        0.02235
H         -0.23606        2.36560       -0.49440
H         -1.18070        3.33919       -1.61258
Cl        -1.64973       -0.12930        2.38800
Pd         0.02905        0.07177        0.90940
