111
-148.55819724
P         -2.66936        1.89450        0.62697
P          0.15242        0.48190        0.47375
C         -1.72873        1.60597        2.14925
C         -0.47641        1.03581        2.07133
C         -3.60007        3.49279        0.67516
C         -2.92788        4.54873       -0.17505
C         -2.25626        1.94312        3.37924
H         -3.24321        2.37209        3.43649
C         -1.52111        1.71335        4.52958
H         -1.93189        1.97609        5.49073
C         -0.26406        1.14512        4.44818
H          0.30640        0.96337        5.34413
C          0.25825        0.80040        3.21460
H          1.23008        0.33929        3.13381
Pd        -1.17094        1.57828       -1.09277
Cl        -2.71472        2.22899       -2.57776
Cl         0.48341        1.15843       -2.55801
C         -5.00567        3.08216        0.19806
C         -4.06325        0.70539        0.36287
H         -2.87007        4.22885       -1.21648
H         -3.47911        5.49166       -0.15049
H         -1.90779        4.74231        0.16530
H         -5.06623        3.23262       -0.88871
H         -5.76804        3.74724        0.63162
H         -3.97524        0.36270       -0.67697
C         -5.31072        1.59344        0.53053
C         -3.99079       -0.46354        1.32125
H         -3.63008        3.80571        1.72654
H         -5.66307        1.51530        1.56828
H         -6.13652        1.21395       -0.09031
H         -4.83390       -1.14482        1.18541
H         -3.07134       -1.03415        1.17950
H         -4.00568       -0.11781        2.35645
C         -1.40311       -3.73387       -0.26138
C         -0.95711       -2.94261       -1.35315
C         -0.49350       -1.66691       -1.08665
C         -0.39980       -1.19894        0.19655
C         -0.70019       -2.00651        1.26153
C         -1.16409       -3.29703        1.06934
O         -2.16125       -4.90899       -0.49909
C         -0.95867       -3.41158       -2.81690
H         -0.21060       -1.00641       -1.88822
H         -0.58417       -1.61112        2.25606
C         -1.38041       -4.17339        2.31400
C          4.68419        0.62767        0.08793
C          4.04919       -0.53861        0.58614
C          2.66745       -0.54310        0.67627
C          1.93408        0.57208        0.36545
C          2.54901        1.73686       -0.00994
C          3.92778        1.80870       -0.12649
O          6.06783        0.60092       -0.23175
C          4.82498       -1.80221        0.98961
H          2.13843       -1.43118        0.97675
H          1.93007        2.58847       -0.23417
C          4.57404        3.14384       -0.52772
C          0.40369       -3.07519       -3.46327
C         -1.15574       -4.93182       -2.94460
C         -2.07363       -2.68041       -3.58349
C         -1.55888       -5.65994        1.96044
C         -0.14056       -4.07246        3.23004
C         -2.61668       -3.67589        3.08158
C         -3.55445       -4.65465       -0.56941
H          0.57127       -2.00095       -3.51932
H          1.21988       -3.51383       -2.88990
H          0.45847       -3.46508       -4.47929
H         -1.06072       -5.25467       -3.98107
H         -0.41409       -5.46640       -2.35209
H         -2.14078       -5.23228       -2.59543
H         -2.08409       -2.97639       -4.63206
H         -3.05193       -2.90317       -3.16185
H         -1.93233       -1.60078       -3.54127
H         -1.61365       -6.27382        2.85917
H         -2.47284       -5.82346        1.39438
H         -0.72420       -6.01415        1.35652
H         -0.23625       -4.73747        4.08797
H          0.76184       -4.35209        2.68702
H         -0.00228       -3.06359        3.61529
H         -2.78274       -4.27075        3.97932
H         -2.49490       -2.63686        3.38632
H         -3.51281       -3.73914        2.46707
H         -3.76807       -3.96747       -1.38658
H         -4.08318       -5.59273       -0.73954
H         -3.90089       -4.20940        0.36193
C          6.34524        0.19979       -1.56774
C          4.07632       -2.56824        2.10477
C          4.96101       -2.72554       -0.23072
C          6.21548       -1.44660        1.54607
C          3.73179        4.33412       -0.01499
C          5.97725        3.29107        0.08825
C          4.65485        3.22579       -2.05975
H          3.14486       -3.00071        1.74239
H          4.68321       -3.39017        2.48389
H          3.84631       -1.90865        2.94115
H          3.97947       -3.00567       -0.61270
H          5.50191       -2.23651       -1.03724
H          5.49600       -3.63886        0.02824
H          6.73978       -2.33791        1.88981
H          6.83603       -0.97136        0.79060
H          6.12776       -0.75906        2.38666
H          4.25100        5.27700       -0.18540
H          2.77347        4.40072       -0.52778
H          3.54431        4.24398        1.05466
H          6.65877        2.53326       -0.28972
H          6.40697        4.26516       -0.14408
H          5.93294        3.18946        1.17207
H          3.66183        3.14734       -2.50181
H          5.26119        2.42010       -2.46634
H          5.09333        4.17115       -2.37814
H          6.97204       -0.69174       -1.55977
H          5.41773       -0.01183       -2.10136
H          6.88831        0.99224       -2.08245
