105
-153.07081858
Cl        -0.03457        1.94734        3.04585
Pd        -0.60134        1.14632        1.01073
P         -1.21789        0.48812       -1.14256
N         -0.91482       -1.05830       -1.91817
C          0.09427       -1.98210       -1.63431
C          0.32280       -2.48500       -0.32631
C          1.33500       -3.44514       -0.12284
C          1.54025       -4.00461        1.26515
C          2.41148       -5.26903        1.32326
C          3.63941       -5.13130        0.41889
C          3.21459       -4.90232       -1.03922
C          2.10670       -3.89139       -1.19910
C          1.84009       -3.40999       -2.47442
C          0.85201       -2.48605       -2.69138
H          0.66277       -2.11989       -3.68534
H          2.42824       -3.77134       -3.30101
H          4.07535       -4.58111       -1.63977
H          4.24749       -4.28396        0.75957
H          2.71271       -5.48895        2.35723
H          1.98903       -3.22258        1.88827
C         -0.62406       -2.18925        0.77564
C         -0.15421       -1.60169        1.98371
C         -1.03449       -1.51070        3.06681
C         -2.33068       -1.94377        2.96132
C         -2.81172       -2.50894        1.78665
C         -4.24464       -2.98691        1.76608
C         -4.75112       -3.43711        0.38540
C         -3.66602       -4.20394       -0.37513
C         -2.42194       -3.32578       -0.57017
C         -1.95433       -2.64447        0.69233
H         -1.59950       -3.92522       -0.98016
H         -4.04617       -4.56678       -1.34062
H         -5.04859       -2.55968       -0.20182
H         -4.88528       -2.18881        2.16234
H         -2.99665       -1.84880        3.80231
H         -0.68914       -1.05527        3.97832
N          1.12243       -1.03197        2.09321
P          1.54813        0.16756        0.87306
C          2.66300       -0.41752       -0.39337
C          2.52329        0.06268       -1.67075
C          3.42095       -0.32192       -2.64961
C          4.47469       -1.17332       -2.34369
C          4.60852       -1.63102       -1.03917
C          3.70715       -1.24633       -0.06270
H          3.81039       -1.58698        0.95522
H          5.42088       -2.29335       -0.79360
C          5.41646       -1.62472       -3.40462
H          3.30410        0.03409       -3.65882
H          1.70903        0.73008       -1.89314
C          2.38741        1.59431        1.57312
C          3.16429        1.47056        2.69943
C          3.81114        2.58142        3.21001
C          3.69277        3.81728        2.58784
C          2.90634        3.91906        1.44821
C          2.26099        2.80762        0.93805
H          1.65017        2.88321        0.05164
H          2.79816        4.87498        0.96489
C          4.36129        5.02006        3.15682
H          4.41105        2.49517        4.09983
H          3.26609        0.50821        3.17390
H          1.30928       -0.57750        2.97764
H         -1.18917       -0.93598       -2.88447
C         -0.52037        1.84326       -2.09141
C         -0.59100        3.11618       -1.57579
C         -0.02424        4.17198       -2.26411
C          0.60370        3.96155       -3.48416
C          0.65358        2.67180       -3.99611
C          0.08590        1.61761       -3.30456
H          0.13314        0.61597       -3.69836
H          1.14611        2.49728       -4.93747
C          1.24577        5.09174       -4.21069
H         -0.06616        5.16749       -1.85623
H         -1.10144        3.27678       -0.63906
C         -3.00244        0.68149       -1.16007
C         -3.59915        1.42402       -2.15128
C         -4.97418        1.57338       -2.16597
C         -5.75908        0.98580       -1.18310
C         -5.13838        0.23015       -0.19835
C         -3.76419        0.07744       -0.19122
H         -3.27617       -0.49860        0.57655
H         -5.73792       -0.23165        0.56726
C         -7.24091        1.13029       -1.20555
H         -5.44626        2.15227       -2.94130
H         -2.98751        1.88711       -2.90894
Cl        -2.49529        2.35160        1.23828
H          2.88682       -5.85070       -1.48147
H          1.81895       -6.13400        0.99969
H          4.28904       -6.01390        0.50474
H          0.55848       -4.20680        1.71170
H         -3.39122       -5.10268        0.19115
H         -2.63017       -2.55651       -1.32264
H         -4.33991       -3.81547        2.47811
H         -5.66134       -4.04555        0.48258
H          5.53080       -0.86495       -4.17903
H          6.40562       -1.82887       -2.99239
H          5.05471       -2.53781       -3.87948
H          5.28278        4.75075        3.67486
H          4.61866        5.73494        2.37402
H          3.70819        5.52342        3.87095
H          2.28318        5.21412       -3.89631
H          1.23819        4.92255       -5.28836
H          0.72318        6.03008       -4.01965
H         -7.70070        0.31995       -1.77293
H         -7.65294        1.11063       -0.19564
H         -7.53765        2.07419       -1.66492
