105
-153.06405376
Cl        -0.02260        1.86475        3.11987
Pd        -0.44587        1.30276        0.98151
P         -1.08501        0.52991       -1.15106
N         -0.62829       -0.95180       -1.98790
C          0.23252       -1.98639       -1.62596
C          0.31870       -2.48522       -0.30266
C          1.23889       -3.51456       -0.01361
C          1.31354       -4.05078        1.39671
C          2.09498       -5.36581        1.54275
C          3.38367       -5.33185        0.71646
C          3.06466       -5.12318       -0.77115
C          2.04419       -4.04261       -1.02653
C          1.89812       -3.57497       -2.32615
C          1.00807       -2.57674       -2.62276
H          0.92195       -2.21008       -3.63080
H          2.50792       -4.00042       -3.10518
H          3.98067       -4.88289       -1.32614
H          4.02070       -4.51172        1.07107
H          2.31547       -5.57460        2.59915
H          1.77103       -3.28310        2.03138
C         -0.67326       -2.09429        0.72921
C         -0.22423       -1.52085        1.95087
C         -1.13501       -1.39272        3.00337
C         -2.43527       -1.80165        2.86489
C         -2.89467       -2.36175        1.67915
C         -4.32731       -2.83668        1.63217
C         -4.65308       -3.75292        0.44253
C         -3.99628       -3.24019       -0.84133
C         -2.47082       -3.15762       -0.68004
C         -2.01816       -2.49578        0.59923
H         -2.03697       -4.16359       -0.72333
H         -4.39119       -2.24486       -1.07941
H         -5.74014       -3.84929        0.31033
H         -4.98576       -1.96153        1.61539
H         -3.12109       -1.69215        3.68795
H         -0.80407       -0.94437        3.92368
N          1.08170       -1.03557        2.11549
P          1.62772        0.19746        0.97933
C          2.63079       -0.34648       -0.38988
C          2.44630        0.25091       -1.61175
C          3.25527       -0.10456       -2.67547
C          4.26319       -1.04577       -2.51056
C          4.44064       -1.62581       -1.26081
C          3.62915       -1.27000       -0.19842
H          3.76424       -1.70950        0.77710
H          5.21396       -2.36253       -1.12607
C          5.10580       -1.46169       -3.66521
H          3.10348        0.34375       -3.64233
H          1.66178        0.97955       -1.72792
C          2.55178        1.50930        1.78592
C          3.28266        1.24515        2.91907
C          3.99510        2.26256        3.52783
C          3.98729        3.54612        2.99822
C          3.24395        3.79089        1.85142
C          2.53312        2.77246        1.24284
H          1.95874        2.95879        0.34853
H          3.22181        4.78538        1.43960
C          4.72769        4.64912        3.67105
H          4.56077        2.06523        4.42237
H          3.29871        0.24548        3.32200
H          1.26126       -0.62318        3.02183
H         -0.89319       -0.85922       -2.96061
C         -0.61700        1.92469       -2.19320
C         -0.90948        3.20865       -1.80017
C         -0.53648        4.28013       -2.58836
C          0.14060        4.07526       -3.78220
C          0.41574        2.77299       -4.17527
C          0.03785        1.70451       -3.38308
H          0.26868        0.69752       -3.68660
H          0.92951        2.60084       -5.10568
C          0.52566        5.22665       -4.64451
H         -0.77006        5.28482       -2.27976
H         -1.43366        3.36767       -0.87339
C         -2.88074        0.50625       -1.11200
C         -3.54416        0.69950       -2.30071
C         -4.92744        0.67985       -2.33010
C         -5.65489        0.46702       -1.16733
C         -4.96722        0.28498        0.02398
C         -3.58491        0.28779        0.04703
H         -3.04932        0.13452        0.97008
H         -5.52321        0.15244        0.93607
C         -7.14357        0.47464       -1.18738
H         -5.45027        0.83637       -3.25810
H         -2.97641        0.86909       -3.20245
Cl        -2.27153        2.62531        0.98100
H          2.69621       -6.06035       -1.20518
H          1.46901       -6.20043        1.20284
H          3.97032       -6.24899        0.86829
H          0.29304       -4.17782        1.77955
H         -4.26548       -3.87471       -1.69760
H         -2.04460       -2.61705       -1.53164
H         -4.55578       -3.35052        2.57482
H         -4.29152       -4.76732        0.65338
H          4.64069       -2.28756       -4.20528
H          5.24700       -0.63787       -4.36625
H          6.09287       -1.78867       -3.33536
H          5.60482        4.27104        4.19808
H          5.07035        5.39132        2.94870
H          4.09059        5.15532        4.39749
H          0.72184        6.11787       -4.04674
H          1.42877        5.00628       -5.21542
H         -0.27030        5.46409       -5.35162
H         -7.52669        0.16654       -2.16121
H         -7.54967       -0.20943       -0.44080
H         -7.52821        1.47290       -0.97436
