171
-217.84724312
P         -1.60683        0.34929       -0.31678
P          1.64776       -0.47723       -0.29784
C         -0.86871        1.23334       -1.69240
C          0.89029       -1.48099       -1.58330
C         -0.09941        0.56328       -2.63653
C          0.50589        1.30690       -3.66758
C          0.29838        2.67519       -3.72661
C         -0.48099        3.31798       -2.78793
C         -1.05902        2.59126       -1.76516
C          1.07153       -2.84137       -1.51877
C          0.44555       -3.67149       -2.42739
C         -0.37610       -3.12867       -3.39210
C         -0.57483       -1.76056       -3.47395
C          0.08041       -0.91234       -2.56072
Cl         1.56906        0.31352        2.86716
Cl        -1.56501       -0.62654        2.85683
C         -1.47821       -1.21894       -4.52610
C          1.34019        0.64319       -4.70686
H         -0.63990        4.38185       -2.85318
H         -1.66306        3.08301       -1.01916
H          1.70449       -3.25812       -0.75226
H          0.59458       -4.73770       -2.37735
H          0.75641        3.23886       -4.52182
H         -0.87905       -3.77161       -4.09473
C         -3.96424       -3.30910       -1.54096
C         -4.24656       -2.10096       -2.16696
C         -3.49839       -0.98893       -1.79712
C         -2.52913       -1.09569       -0.83001
C         -2.26369       -2.29712       -0.22242
C         -2.96799       -3.43851       -0.58168
H         -4.55189       -4.17223       -1.79339
H         -3.66585       -0.02993       -2.25694
H         -1.50925       -2.33303        0.54376
C         -4.23534        3.14853        2.10229
C         -4.83308        2.27672        1.20131
C         -4.00758        1.42395        0.47990
C         -2.64554        1.46021        0.64838
C         -2.07268        2.33359        1.54044
C         -2.86179        3.18193        2.30609
H         -4.85926        3.82091        2.66164
H         -4.42352        0.71939       -0.21708
H         -1.00262        2.33831        1.64884
C          4.62010       -2.82278        2.19535
C          3.27072       -3.14476        2.28583
C          2.37983       -2.43429        1.49315
C          2.82450       -1.43292        0.66671
C          4.15889       -1.11908        0.59883
C          5.08846       -1.81537        1.36050
H          5.33053       -3.36021        2.79480
H          1.32550       -2.65065        1.53535
H          4.46743       -0.31525       -0.04534
C          3.63542        3.38190       -1.56629
C          2.69950        3.41040       -0.53954
C          2.08703        2.21488       -0.19057
C          2.39621        1.05193       -0.85088
C          3.32603        1.03787       -1.86111
C          3.97100        2.21106       -2.23617
H          4.13575        4.29009       -1.84489
H          1.38077        2.18475        0.62127
H          3.55249        0.10085       -2.34062
Pd        -0.00476       -0.12514        1.31426
C         -5.25670       -3.10617       -4.24642
C         -5.40436       -2.01115       -3.17205
C         -5.43898       -0.64097       -3.87743
C         -6.73145       -2.20856       -2.41769
H         -5.30652       -4.10307       -3.81082
H         -6.05196       -3.03159       -4.98797
H         -4.30436       -3.01600       -4.76687
H         -6.24259       -0.60501       -4.61284
H         -5.61249        0.16496       -3.16501
H         -4.50324       -0.44390       -4.39949
H         -7.58107       -2.14390       -3.09721
H         -6.76450       -3.18231       -1.92991
H         -6.85477       -1.44617       -1.64909
C         -2.48277       -5.86709       -1.00817
C         -2.70006       -4.79734        0.07890
C         -3.90889       -5.17883        0.95036
C         -1.44142       -4.75227        0.96805
H         -3.37203       -5.99837       -1.62308
H         -1.66019       -5.58624       -1.66484
H         -2.24371       -6.83244       -0.56233
H         -4.07978       -4.42676        1.72044
H         -4.81585       -5.25603        0.35148
H         -3.74850       -6.13761        1.44308
H         -1.22978       -5.73437        1.39051
H         -0.57096       -4.44295        0.39024
H         -1.56878       -4.05925        1.79934
C         -7.02051        1.95711        2.38580
C         -6.35897        2.27393        1.03194
C         -6.81460        1.21496        0.00846
C         -6.81741        3.65851        0.53922
H         -8.10582        1.92467        2.29165
H         -6.68466        0.99030        2.76028
H         -6.77361        2.70950        3.13381
H         -6.38716        1.41035       -0.97473
H         -6.51816        0.21444        0.32289
H         -7.89934        1.21973       -0.09742
H         -7.89694        3.68237        0.39130
H         -6.56161        4.43828        1.25567
H         -6.34091        3.90620       -0.40919
C         -0.76790        3.82608        3.59849
C         -2.25605        4.13844        3.34323
C         -3.00551        3.99513        4.68232
C         -2.38192        5.58160        2.82701
H         -0.36546        4.46687        4.38279
H         -0.63375        2.79086        3.91227
H         -0.17201        3.99474        2.70380
H         -4.05112        4.28520        4.59031
H         -2.97172        2.96334        5.03165
H         -2.55584        4.62555        5.44925
H         -1.95204        6.28935        3.53559
H         -1.86252        5.69697        1.87588
H         -3.42606        5.85194        2.67199
C          3.84103       -4.80178        4.13214
C          2.73488       -4.23895        3.21933
C          2.16362       -5.38731        2.36949
C          1.62371       -3.64960        4.11113
H          3.43720       -5.55328        4.81049
H          4.62936       -5.27696        3.54877
H          4.28600       -4.01295        4.73844
H          1.36095       -5.03437        1.72402
H          2.93689       -5.81792        1.73359
H          1.76318       -6.18022        3.00090
H          1.25475       -4.39281        4.81754
H          1.99835       -2.79870        4.67955
H          0.77551       -3.30665        3.52025
C          7.04785       -1.03337        2.71306
C          6.58739       -1.48603        1.31558
C          6.89067       -0.35569        0.31134
C          7.37291       -2.73949        0.88836
H          6.90021       -1.81974        3.45234
H          8.10595       -0.77219        2.71002
H          6.48447       -0.15893        3.03823
H          6.58488       -0.63469       -0.69685
H          6.37490        0.56393        0.58737
H          7.95831       -0.13827        0.28380
H          8.44025       -2.52813        0.82535
H          7.23662       -3.55444        1.59822
H          7.03941       -3.08750       -0.08914
C          0.85660        4.99398        0.08017
C          2.35563        4.68539        0.24303
C          3.15926        5.89989       -0.25929
C          2.68425        4.46462        1.73186
H          0.57187        5.87040        0.66192
H          0.61830        5.19203       -0.96392
H          0.24188        4.15771        0.40846
H          2.94867        6.10225       -1.30931
H          2.90107        6.79458        0.30719
H          4.23069        5.73556       -0.14616
H          3.74431        4.24868        1.86295
H          2.44391        5.34949        2.32088
H          2.12349        3.62657        2.14315
C          4.69111        3.24254       -4.41141
C          5.06996        2.23697       -3.30812
C          5.27031        0.85151       -3.95295
C          6.39788        2.66301       -2.65462
H          3.73428        2.98207       -4.86168
H          4.60823        4.25398       -4.01572
H          5.44250        3.25591       -5.20076
H          5.57781        0.11434       -3.21151
H          4.35488        0.50126       -4.42784
H          6.04513        0.88994       -4.71853
H          6.67404        1.97210       -1.85841
H          7.20620        2.67633       -3.38553
H          6.32344        3.65953       -2.22079
H         -2.40310       -1.79360       -4.57180
H          0.74578        0.40525       -5.58982
H         -1.00648       -1.26727       -5.50848
H         -1.74641       -0.18021       -4.32910
H          1.77641       -0.28409       -4.33272
H          2.15871        1.28977       -5.02335
