111
-148.54938218
P         -2.69991        1.95069       -0.33079
P          0.04746        0.52801        0.30505
C         -1.92013        2.18443        1.29185
C         -0.68825        1.61724        1.53610
C         -3.61789        3.47325       -0.85140
C         -2.82604        4.33124       -1.81363
C         -2.54198        2.92243        2.27929
H         -3.51562        3.34602        2.09720
C         -1.92048        3.09833        3.50374
H         -2.40608        3.67463        4.27429
C         -0.68119        2.53533        3.74098
H         -0.19923        2.67004        4.69531
C         -0.06487        1.78665        2.75464
H          0.89209        1.31985        2.92911
Pd        -1.10234        0.92945       -1.66552
Cl        -2.19036        1.69446       -3.46499
Cl         0.55882       -0.14047       -2.73900
C         -4.92768        2.89291       -1.41316
C         -4.08337        0.71774       -0.34735
H         -2.60999        3.78943       -2.73402
H         -3.37590        5.23440       -2.08791
H         -1.87028        4.63406       -1.37977
H         -4.79302        2.69150       -2.48498
H         -5.73678        3.63660       -1.34968
H         -3.86457        0.02724       -1.17295
C         -5.31897        1.57653       -0.68150
C         -4.17015       -0.02767        0.96678
H         -3.82512        4.03441        0.06837
H         -5.84212        1.82091        0.25309
H         -6.03878        0.99598       -1.27803
H         -4.31963        0.66597        1.79631
H         -5.00171       -0.73623        0.97081
H         -3.25226       -0.58416        1.16670
C         -1.23687       -3.75346        1.19500
C         -0.64448       -3.43580       -0.05376
C         -0.28478       -2.12115       -0.29048
C         -0.42275       -1.16186        0.67630
C         -0.88980       -1.48664        1.92271
C         -1.27319       -2.78160        2.22752
O         -1.82818       -5.02878        1.39750
C         -0.42165       -4.47876       -1.15933
H          0.09621       -1.81600       -1.24878
H         -0.96567       -0.70510        2.65756
C         -1.75087       -3.10262        3.65225
C          4.57372        0.91815        0.02362
C          3.74427        1.87628       -0.61409
C          2.37096        1.75212       -0.47791
C          1.82348        0.68809        0.18883
C          2.61701       -0.29784        0.71451
C          3.99671       -0.23384        0.61620
O          5.97662        1.12788        0.09635
C          4.31294        3.04094       -1.43980
H          1.70471        2.48534       -0.89925
H          2.13823       -1.12844        1.20363
C          4.83897       -1.39966        1.15763
C         -0.14872       -5.87122       -0.56268
C         -1.65770       -4.52356       -2.07033
C          0.80999       -4.10715       -2.01680
C         -3.26624       -2.86792        3.74630
C         -1.41320       -4.55464        4.03638
C         -1.04649       -2.18944        4.68169
C         -3.20179       -5.09256        1.03457
H          0.70167       -5.83686        0.11755
H         -1.00647       -6.23944       -0.00548
H          0.07173       -6.59666       -1.34537
H         -1.83935       -3.54779       -2.52045
H         -1.52426       -5.24676       -2.87439
H         -2.54880       -4.80146       -1.51250
H          0.63658       -3.20723       -2.60479
H          1.68428       -3.94235       -1.38786
H          1.04817       -4.90601       -2.71859
H         -3.63405       -3.08958        4.74781
H         -3.51044       -1.83032        3.52007
H         -3.80727       -3.49614        3.04274
H         -1.94039       -5.26515        3.40468
H         -0.34511       -4.74116        3.92958
H         -1.69239       -4.76200        5.06912
H         -1.36145       -1.15160        4.58309
H         -1.28319       -2.49938        5.69929
H          0.03576       -2.23300        4.56168
H         -3.34110       -5.84728        0.26076
H         -3.79615       -5.38033        1.90161
H         -3.54322       -4.12492        0.66445
C          6.39562        1.84843        1.24834
C          4.54108        4.25225       -0.52345
C          5.63091        2.64017       -2.12742
C          3.32708        3.44544       -2.55982
C          5.16692       -1.14656        2.63665
C          4.06168       -2.73159        1.04387
C          6.13694       -1.56855        0.34720
H          4.93354        5.09900       -1.08603
H          3.60743        4.56180       -0.05433
H          5.24805        4.01889        0.26916
H          5.99860        3.44139       -2.76795
H          6.40721        2.41933       -1.39901
H          5.48750        1.75236       -2.74242
H          3.78016        4.17628       -3.22921
H          3.04037        2.57861       -3.15477
H          2.42269        3.89891       -2.15711
H          5.75632       -1.96392        3.05138
H          5.73265       -0.22646        2.76276
H          4.25326       -1.05700        3.22390
H          4.69987       -3.57562        1.30437
H          3.20554       -2.75955        1.71634
H          3.70366       -2.88453        0.02616
H          5.91344       -1.70265       -0.71066
H          6.70185       -2.43597        0.68766
H          6.78112       -0.69815        0.44388
H          6.91949        2.75380        0.94222
H          5.53578        2.11576        1.86387
H          7.08429        1.23736        1.83152
