111
-148.55538091
P         -2.53583        2.08778        0.91085
P          0.12776        0.39956        0.52390
C         -1.44708        1.77689        2.32781
C         -0.27272        1.07830        2.14552
C         -3.31983        3.76223        0.98769
C         -2.70175        4.70584       -0.02082
C         -1.79264        2.22375        3.58710
H         -2.72175        2.75089        3.72935
C         -0.95274        1.97808        4.65977
H         -1.22165        2.32729        5.64332
C          0.22729        1.28405        4.47238
H          0.87987        1.09118        5.30790
C          0.56627        0.82834        3.21098
H          1.47596        0.27125        3.04899
Pd        -1.29225        1.49392       -0.93255
Cl        -2.92112        2.26373       -2.26925
Cl         0.02696        0.86309       -2.64307
C         -4.81031        3.45407        0.75047
C         -4.04324        1.01592        0.89160
H         -3.16647        5.69377        0.01944
H         -1.62991        4.82683        0.15355
H         -2.82692        4.32473       -1.03534
H         -5.02659        3.56610       -0.32095
H         -5.44208        4.19834        1.25876
H         -4.13623        0.64093       -0.13655
C         -5.17662        2.01120        1.20223
C         -3.91926       -0.12983        1.87240
H         -3.16435        4.13383        2.00842
H         -5.36759        2.00328        2.28422
H         -6.11611        1.67957        0.73441
H         -4.82059       -0.74707        1.88253
H         -3.07252       -0.77257        1.62265
H         -3.75997        0.24296        2.88592
C         -1.21589       -3.93698        0.16073
C         -1.12530       -3.34274        1.44616
C         -0.70045       -2.02737        1.53362
C         -0.44901       -1.29213        0.40543
C         -0.64465       -1.82896       -0.83905
C         -1.06295       -3.13712       -1.00008
O         -1.41883       -5.33729        0.03830
C         -1.44680       -4.11427        2.73559
H         -0.55058       -1.55913        2.49024
H         -0.45072       -1.20239       -1.69211
C         -1.30792       -3.66630       -2.42122
C          4.49460        0.73910       -0.71703
C          3.80887       -0.49369       -0.86034
C          2.48205       -0.55141       -0.47145
C          1.86041        0.52735        0.10050
C          2.54608        1.69055        0.33274
C          3.87905        1.81494       -0.02598
O          5.77899        0.90881       -1.29896
C          4.45726       -1.74667       -1.46930
H          1.90558       -1.44558       -0.62969
H          2.01795        2.50880        0.79131
C          4.62402        3.11772        0.30508
C         -2.55922       -5.15128        2.49623
C         -0.17450       -4.81010        3.24206
C         -1.95535       -3.15519        3.83606
C         -1.81163       -2.53111       -3.34285
C          0.00966       -4.21342       -2.99148
C         -2.38875       -4.76214       -2.42942
C         -0.21477       -6.09221       -0.01650
H         -2.83289       -5.65377        3.42364
H         -3.45094       -4.67135        2.09428
H         -2.24398       -5.91487        1.78938
H         -0.36871       -5.35507        4.16551
H          0.20630       -5.51711        2.50899
H          0.61106       -4.08084        3.43881
H         -2.29319       -3.71349        4.70885
H         -1.17361       -2.47676        4.17434
H         -2.79425       -2.56083        3.47567
H         -2.11288       -2.92504       -4.31310
H         -2.67272       -2.02822       -2.90352
H         -1.03901       -1.78637       -3.52740
H          0.76730       -3.43094       -3.02812
H          0.39945       -5.02231       -2.37789
H         -0.13070       -4.59427       -4.00271
H         -2.60589       -5.09087       -3.44542
H         -2.07482       -5.63437       -1.86185
H         -3.31326       -4.39177       -1.98772
H         -0.15676       -6.62277       -0.96666
H          0.65091       -5.43660        0.08664
H         -0.21024       -6.82969        0.78603
C          5.74749        1.39133       -2.63641
C          4.22115       -1.75012       -2.98738
C          5.96497       -1.79756       -1.16377
C          3.83312       -3.02949       -0.87183
C          4.05632        3.75799        1.59238
C          6.11944        2.85386        0.55920
C          4.45100        4.11070       -0.85419
H          4.65578       -2.63651       -3.44867
H          3.15448       -1.74108       -3.21067
H          4.66350       -0.87494       -3.45715
H          6.41108       -2.71629       -1.54380
H          6.49133       -0.96334       -1.62051
H          6.14014       -1.75445       -0.08933
H          2.79715       -3.15831       -1.18175
H          4.37665       -3.91423       -1.20261
H          3.86468       -3.00512        0.21712
H          4.66323        4.60880        1.90127
H          3.04183        4.12590        1.44678
H          4.04677        3.03893        2.41115
H          6.63338        3.76720        0.85781
H          6.24987        2.11679        1.35083
H          6.61322        2.47603       -0.33254
H          3.39602        4.32464       -1.02384
H          4.85980        3.71178       -1.77935
H          4.95683        5.05205       -0.64106
H          4.71770        1.55423       -2.95712
H          6.30120        2.32790       -2.70032
H          6.22425        0.66854       -3.29822
