72
-98.09818707
Fe        -0.01349        2.73245       -0.00478
P          1.91623       -0.06436       -0.03072
P         -1.88423       -0.11402       -0.05920
C          1.45026        1.56830        0.67076
C          0.47633        1.79200        1.72679
C          0.37618        3.22327        1.95102
C          1.30785        3.88471        1.05589
C          1.98771        2.86290        0.27788
C         -1.40659        1.51940       -0.73995
C         -1.98934        2.80662       -0.39759
C         -1.30509        3.82541       -1.17736
C         -0.33996        3.17064       -2.04141
C         -0.38919        1.74909       -1.75130
C          3.27255       -0.80442        1.00333
C          4.57576       -0.35828        0.30142
C          2.91672        0.18848       -1.57435
C          4.31330        0.47166       -0.98662
C         -3.34897       -0.72067       -1.02060
C         -4.52120       -0.12467       -0.22310
C         -2.70877        0.08420        1.59238
C         -4.21362       -0.09832        1.29787
H         -0.09164        1.02343        2.25053
H         -0.27277        3.71379        2.68024
H          1.48260        4.96130        0.99257
H          2.73728        3.04001       -0.49573
H         -2.79766        2.97140        0.31849
H          0.21093        0.97540       -2.23058
Cl         1.57672       -3.11485       -0.14565
Cl        -1.59089       -3.02748       -0.17454
Pd         0.04142       -1.46900        0.02062
H          3.15565       -1.89173        0.92905
C          3.18808       -0.38582        2.46717
H          2.51603        1.06312       -2.10062
C          2.91698       -1.03316       -2.49149
H          5.18630       -1.24024        0.05864
H          5.18500        0.22453        1.00635
H          4.40866        1.54330       -0.75775
H          5.08561        0.26639       -1.74304
H         -1.51920        4.89641       -1.15575
H          0.31971        3.65907       -2.76118
H          4.13252       -0.63688        2.96996
H          3.72678       -0.92495       -3.22645
H         -3.35869       -1.81373       -0.94528
C         -3.31591       -0.29833       -2.48429
H         -2.49319        1.10618        1.92589
C         -2.16849       -0.93076        2.59350
H         -5.44850       -0.68094       -0.43058
H         -4.70467        0.89839       -0.58095
H         -4.80195        0.68272        1.80182
H         -4.54655       -1.04498        1.74429
H         -4.28908       -0.51854       -2.94474
H         -1.07274       -0.89877        2.59204
C          2.02782       -1.03652        3.20165
H          1.95246       -0.69811        4.23748
H          1.08162       -0.81293        2.71191
H          2.12793       -2.12353        3.21499
C          1.60373       -1.27124       -3.21660
H          1.31941       -0.40644       -3.81882
H          1.65716       -2.13301       -3.88581
H          0.79513       -1.46366       -2.51354
C         -2.20356       -0.97359       -3.26732
H         -1.23059       -0.73810       -2.83840
H         -2.30759       -2.06000       -3.24603
H         -2.18662       -0.66172       -4.31403
C         -2.69122       -0.71317        4.00552
H         -2.42080        0.27749        4.37603
H         -3.77960       -0.78392        4.04294
H         -2.29050       -1.44752        4.70798
H          3.11491        0.70837        2.51846
H          3.18649       -1.91497       -1.89557
H         -3.21168        0.79335       -2.53627
H         -2.41959       -1.94032        2.24095
