59
-75.80668674
Cl         1.60907        0.59263        2.35985
P          1.61996       -0.10643       -0.87021
P         -1.58935       -0.14071       -0.77387
C          0.59212        0.23699       -2.36439
H          0.33879        1.29980       -2.38158
H          1.18878        0.02668       -3.25759
C         -0.64914       -0.60531       -2.29120
H         -0.39420       -1.66655       -2.22554
H         -1.29931       -0.47113       -3.16149
C          2.62284       -1.63492       -1.20574
H          2.44165       -1.84556       -2.26846
C          3.00276        1.10824       -0.64303
H          3.11090        1.23850        0.44074
C         -3.03266       -1.25575       -0.47068
H         -3.25571       -1.17835        0.60073
C         -2.52325        1.43092       -1.08753
H         -2.13644        1.83956       -2.02880
C          4.07988       -1.17412       -1.02043
H          4.42497       -1.44617       -0.01576
H          4.74300       -1.71646       -1.71124
C          4.22150        0.35928       -1.20844
H          4.31441        0.59209       -2.27829
H          5.14811        0.72998       -0.74398
C         -4.13731       -0.56983       -1.29147
H         -4.06671       -0.91429       -2.33303
H         -5.13097       -0.88915       -0.94049
C         -3.99404        0.97719       -1.23804
H         -4.56774        1.35786       -0.38232
H         -4.45178        1.44204       -2.12370
C          2.21237       -2.84368       -0.36605
H          2.78108       -3.72124       -0.70384
H          1.16472       -3.08167       -0.58928
C          2.74445        2.45812       -1.30189
H          3.67227        3.04684       -1.28615
H          2.52389        2.29901       -2.36528
C         -2.75880       -2.70719       -0.83982
H         -3.70375       -3.26810       -0.83220
H         -2.40669       -2.75131       -1.87832
C         -2.30657        2.41795        0.05403
H         -2.71473        1.98316        0.97661
H         -1.23165        2.52429        0.24649
C          2.39173       -2.67385        1.13632
H          1.89990       -1.77278        1.49999
H          3.44318       -2.59628        1.41585
H          1.97623       -3.51690        1.69336
C          1.62467        3.23960       -0.63482
H          1.84717        3.42894        0.41702
H          0.68712        2.68601       -0.66698
H          1.45232        4.20529       -1.11543
C         -1.75535       -3.36113        0.09677
H         -1.50550       -4.37951       -0.20918
H         -2.14031       -3.40745        1.11730
H         -0.82905       -2.78810        0.13777
C         -2.92372        3.78329       -0.21068
H         -2.75702        4.47523        0.61800
H         -2.50087        4.23819       -1.10849
H         -4.00166        3.71063       -0.36482
Cl        -1.56076       -0.18399        2.38270
Pd         0.05976        0.03041        0.84232
