45
-71.81404371
C          0.32159        0.61197        2.48968
P          0.93712        0.61771        0.77124
P         -1.61684        0.26117       -1.03155
C         -2.40547       -0.07443       -2.64175
Cl         1.86802       -2.35240        0.27857
H          0.64589       -0.29159        2.99799
H         -3.22754        0.61610       -2.80670
Cl        -1.13876       -2.81138       -1.38515
C          0.28928        2.02991       -0.14589
C         -0.81211        1.87466       -0.95859
C         -1.31910        2.95358       -1.65338
C         -0.70801        4.19019       -1.54183
C          0.40075        4.34400       -0.73195
C          0.90052        3.26131       -0.02986
H         -2.19241        2.82532       -2.27186
H         -1.10004        5.03436       -2.08489
H          0.87609        5.30713       -0.64490
H          1.76437        3.36562        0.60693
Pd         0.04074       -1.21364       -0.34205
H         -2.79033       -1.09007       -2.65782
H         -0.76403        0.64489        2.49313
H         -1.67777        0.03943       -3.44013
C         -4.46109       -0.20747        2.48199
C         -3.96445        1.04152        2.16302
C         -3.10890        1.18851        1.08617
C         -2.76224        0.08799        0.33691
C         -3.24609       -1.15926        0.65628
C         -4.10230       -1.30995        1.73123
H         -5.12742       -0.32265        3.32125
H         -4.24100        1.90025        2.75240
H         -2.70630        2.15486        0.82883
H         -2.92658       -2.00919        0.07470
H         -4.48246       -2.28580        1.98498
C          5.47026        0.49543        0.40004
C          4.88863        0.33744        1.64250
C          3.51193        0.37895        1.77077
C          2.72836        0.58105        0.65750
C          3.30295        0.73419       -0.58371
C          4.67980        0.69322       -0.71464
H          6.54280        0.46046        0.29965
H          5.50573        0.17749        2.51138
H          3.04737        0.24805        2.73442
H          2.67052        0.88245       -1.44525
H          5.13259        0.81179       -1.68528
H          0.70176        1.47855        3.02299
