87
-129.18741935
P         -1.67678       -0.38410       -0.17126
P          1.59451        0.36504       -0.15556
C         -1.41853        0.92383       -1.38947
C          1.37505       -0.67743       -1.60245
C         -0.43985        0.85113       -2.37813
C         -0.23263        1.96775       -3.21110
C         -1.02108        3.09354       -3.04700
C         -1.99331        3.14329       -2.07225
C         -2.18246        2.05687       -1.24131
C          2.17319       -1.78545       -1.74876
C          2.01335       -2.61629       -2.83996
C          1.04736       -2.32925       -3.78092
C          0.22985       -1.21882       -3.65123
C          0.39851       -0.36697       -2.54157
Cl         1.19857        1.08337        2.99899
Cl        -1.36151       -0.86862        3.03310
H         -2.59542        4.02886       -1.95102
H         -2.93024        2.09545       -0.46659
H          2.92594       -2.00154       -1.00894
H          2.63742       -3.48771       -2.95200
H         -0.85954        3.94230       -3.68972
H          0.91492       -2.97754       -4.63045
C         -1.08357       -4.60728       -1.73705
C         -0.44462       -4.21516       -0.56868
C         -0.65801       -2.92517       -0.09966
C         -1.47511       -2.05694       -0.78628
C         -2.12133       -2.45944       -1.93111
C         -1.92503       -3.74195       -2.40891
H         -0.91542       -5.60012       -2.11811
C          0.49036       -5.12905        0.14179
H         -0.18971       -2.60436        0.81468
H         -2.75843       -1.76376       -2.45401
H         -2.41912       -4.06120       -3.31184
C         -5.69055        0.12495        1.91858
C         -5.51619       -0.88971        0.99834
C         -4.29764       -1.04374        0.36444
C         -3.26360       -0.18475        0.65527
C         -3.43565        0.82710        1.57182
C         -4.65544        1.00109        2.21422
H         -6.63557        0.24066        2.42142
H         -6.32703       -1.56449        0.77775
H         -4.14544       -1.83625       -0.34980
H         -2.61107        1.47925        1.80857
C         -4.82290        2.07208        3.23372
C          5.01910       -1.19628        2.41196
C          5.11642        0.05005        1.82498
C          4.08394        0.52460        1.03823
C          2.96409       -0.24918        0.84415
C          2.86359       -1.48944        1.43157
C          3.89456       -1.98654        2.21875
H          5.81791       -1.56387        3.03329
H          5.99325        0.65575        1.98522
H          4.14142        1.50004        0.58381
H          1.97514       -2.07967        1.28357
C          3.76480       -3.31518        2.87634
C          2.17631        4.70308       -1.36073
C          2.96070        3.71920       -1.93037
C          2.79520        2.39977       -1.55155
C          1.85066        2.08019       -0.60482
C          1.07565        3.05818       -0.02647
C          1.22847        4.38881       -0.39638
H          2.29327        5.72924       -1.66499
H          3.69409        3.97709       -2.67669
H          3.38495        1.61520       -1.99932
H          0.34019        2.78859        0.71261
C          0.35589        5.44022        0.19268
Pd        -0.06747        0.06246        1.45190
C          0.81909        1.96766       -4.26595
C         -0.80810       -0.95321       -4.68566
H          1.36110        2.91434       -4.27382
H          1.54923        1.17426       -4.10297
H          0.37941        1.82505       -5.25377
H         -0.35404       -0.58293       -5.60561
H         -1.35844       -1.86376       -4.92674
H         -1.53229       -0.21244       -4.34497
H          0.22824       -6.17398       -0.02955
H          1.51449       -4.97676       -0.20221
H          0.46790       -4.95328        1.21832
H         -4.46592        1.73563        4.20808
H         -4.25977        2.96538        2.95952
H         -5.87017        2.35902        3.33832
H          3.22062       -4.01542        2.24075
H          4.74296       -3.74966        3.08720
H          3.22388       -3.22731        3.81958
H         -0.55892        5.55442       -0.39062
H          0.07317        5.18727        1.21559
H          0.86330        6.40558        0.21789
