111
-148.55686343
P         -2.28327        2.23269        1.30182
P          0.09114        0.26907        0.45878
C         -1.19614        1.53093        2.56495
C         -0.19956        0.65214        2.20023
C         -2.46874        4.06267        1.47875
C         -1.71669        4.78242        0.38033
C         -1.39468        1.83871        3.89537
H         -2.17556        2.52936        4.17032
C         -0.59859        1.25186        4.86387
H         -0.75296        1.49018        5.90357
C          0.38478        0.35244        4.49942
H          0.99812       -0.11302        5.25331
C          0.58167        0.04882        3.16412
H          1.33716       -0.66140        2.86563
Pd        -1.53281        1.44672       -0.72813
Cl        -3.36755        2.35054       -1.64826
Cl        -0.78800        0.38314       -2.56249
C         -3.99549        4.26252        1.44161
C         -4.04724        1.70228        1.50930
H         -1.83052        5.86604        0.46175
H         -0.64945        4.54908        0.41070
H         -2.08936        4.48362       -0.60151
H         -4.29644        4.48043        0.40756
H         -4.28046        5.15098        2.02541
H         -4.38734        1.39787        0.51060
C         -4.75309        3.00074        1.94280
C         -4.18572        0.55844        2.49266
H         -2.06764        4.32407        2.46661
H         -4.81309        3.02186        3.03958
H         -5.79601        3.00411        1.59127
H         -5.22358        0.22824        2.57762
H         -3.57989       -0.29973        2.19561
H         -3.85443        0.85884        3.48775
C         -1.06282       -4.06946       -0.28856
C         -2.06674       -3.07962       -0.13092
C         -1.66919       -1.77927        0.13069
C         -0.34294       -1.43650        0.14631
C          0.62884       -2.36674       -0.11332
C          0.30099       -3.68745       -0.37020
O         -1.41937       -5.44366       -0.32835
C         -3.56771       -3.39162       -0.23676
H         -2.39690       -1.00924        0.31813
H          1.65529       -2.04434       -0.11029
C          1.42047       -4.68416       -0.70955
C          4.42553        0.91173       -0.82284
C          4.04320        1.22305        0.50893
C          2.72191        1.02689        0.87484
C          1.78345        0.61559       -0.03711
C          2.12700        0.45044       -1.35347
C          3.42710        0.62976       -1.79170
O          5.79805        0.79995       -1.16363
C          5.01412        1.76247        1.57275
H          2.41572        1.18659        1.89305
H          1.35301        0.17892       -2.04900
C          3.69467        0.53192       -3.30319
C         -4.11616       -3.73976        1.15499
C         -4.33871       -2.16677       -0.78205
C         -3.82444       -4.55260       -1.21457
C          2.58966       -3.96907       -1.42454
C          1.94922       -5.31517        0.58708
C          0.91520       -5.78021       -1.66535
C         -1.47614       -6.06308        0.95031
H         -3.61673       -4.61306        1.56795
H         -3.96371       -2.91261        1.84775
H         -5.18422       -3.95147        1.11188
H         -3.89004       -1.80722       -1.70777
H         -5.37686       -2.42385       -0.99062
H         -4.35151       -1.34555       -0.06756
H         -4.89210       -4.73025       -1.34085
H         -3.39909       -4.33046       -2.19270
H         -3.37694       -5.47734       -0.85897
H          3.32831       -4.68966       -1.77485
H          2.22904       -3.41321       -2.28917
H          3.10791       -3.27703       -0.76236
H          1.16207       -5.84894        1.11441
H          2.75326       -6.02053        0.37859
H          2.33732       -4.54902        1.25792
H          1.72474       -6.44775       -1.95943
H          0.14185       -6.38645       -1.20017
H          0.49503       -5.33773       -2.56795
H         -1.22302       -5.34593        1.73220
H         -2.47927       -6.45191        1.12444
H         -0.77646       -6.89807        0.98289
C          6.29943       -0.51500       -0.98985
C          4.36091        2.95214        2.31069
C          5.32706        0.65138        2.58847
C          6.32558        2.28089        0.95729
C          3.56708       -0.93337       -3.75098
C          2.65313        1.38434       -4.06169
C          5.08360        1.06827       -3.69015
H          4.05414        3.72169        1.60289
H          3.48323        2.64571        2.87733
H          5.05963        3.40284        3.01509
H          5.99661        1.01380        3.36809
H          4.41613        0.29406        3.06787
H          5.80393       -0.19960        2.10591
H          6.95884        2.74377        1.71379
H          6.89379        1.47281        0.50254
H          6.12120        3.02138        0.18479
H          4.28303       -1.56738       -3.23101
H          2.56867       -1.31667       -3.54363
H          3.74661       -1.03065       -4.82130
H          2.67126        2.41547       -3.71019
H          2.86009        1.38974       -5.13145
H          1.64245        1.00218       -3.92916
H          5.21240        1.08124       -4.77218
H          5.87508        0.45073       -3.27233
H          5.22066        2.08323       -3.31876
H          6.23200       -0.80502        0.05740
H          5.72019       -1.21831       -1.58638
H          7.34242       -0.54683       -1.30556
