72
-98.09675932
Fe         0.00821        2.79958       -0.08639
P          1.87723       -0.05575       -0.05599
P         -1.87995       -0.07022        0.01241
C          1.43112        1.58270        0.64065
C          0.44612        1.81195        1.68263
C          0.35783        3.24461        1.89858
C          1.33323        3.89414        1.04103
C          2.01916        2.86386        0.27981
C         -1.41193        1.52495       -0.76827
C         -2.00602        2.82572       -0.50368
C         -1.32926        3.81178       -1.32820
C         -0.31565        3.12321       -2.10495
C         -0.37267        1.71260       -1.76585
C          3.24616       -0.75682        0.98629
C          4.43612        0.09255        0.50707
C          2.91259        0.19463       -1.58084
C          4.32908        0.44392       -1.00736
C         -3.21605       -0.87751       -1.00921
C         -4.50289       -0.67389       -0.18009
C         -2.88465        0.27643        1.54024
C         -4.30809        0.36252        0.95630
H         -0.15059        1.04610        2.17342
H         -0.30219        3.74366        2.61177
H          1.53265        4.96717        0.99310
H          2.80737        3.02247       -0.45877
H         -2.82069        3.02519        0.19491
H          0.27541        0.93202       -2.16253
Cl         1.54625       -3.10630       -0.15902
Cl        -1.59649       -3.01019        0.43144
Pd         0.01186       -1.46721        0.05371
H          3.38635       -1.80095        0.68314
C          2.98159       -0.67648        2.49066
H          2.53095        1.08189       -2.09965
C          2.87968       -1.01738       -2.51091
H          5.38700       -0.41622        0.72976
H          4.45537        1.01785        1.10168
H          4.63761        1.48555       -1.18062
H          5.04947       -0.16209       -1.57458
H         -1.54920        4.88092       -1.36221
H          0.36348        3.58208       -2.82701
H          3.94255       -0.63064        3.02187
H          3.67923       -0.91323       -3.25783
H         -2.96394       -1.94260       -1.07518
C         -3.31478       -0.30185       -2.41988
H         -2.55646        1.23976        1.94903
C         -2.77699       -0.81893        2.60153
H         -4.82552       -1.63254        0.25131
H         -5.32323       -0.36419       -0.84279
H         -4.49398        1.37417        0.56654
H         -5.05107        0.21016        1.75358
H         -4.27252       -0.60326       -2.86660
H         -2.94364       -1.78884        2.11571
C          2.16644       -1.84798        3.01664
H          1.23174       -1.95972        2.46949
H          2.70857       -2.78831        2.89982
H          1.92130       -1.73834        4.07541
C          1.55302       -1.23219       -3.21900
H          1.27551       -0.36147       -3.81585
H          1.58448       -2.09220       -3.89189
H          0.75003       -1.41505       -2.50636
C         -2.17457       -0.73977       -3.32284
H         -1.21274       -0.45048       -2.90442
H         -2.15685       -1.82498       -3.44057
H         -2.24563       -0.29979       -4.32013
C         -1.46338       -0.83069        3.36177
H         -0.62230       -0.96909        2.68526
H         -1.30516        0.10713        3.89762
H         -1.42319       -1.63766        4.09705
H          2.48514        0.27636        2.71434
H          3.14525       -1.90918       -1.92808
H         -3.35996        0.79289       -2.35292
H         -3.60812       -0.70932        3.31195
