171
-217.83666404
P         -1.51013        0.14572       -0.20466
P          1.70934       -0.67706        0.21775
C         -0.70823        0.70704       -1.72031
C          0.88640       -1.90567       -0.82018
C          0.05967       -0.19985       -2.43952
C          0.71818        0.23043       -3.60702
C          0.54729        1.53892       -4.03020
C         -0.23528        2.42108       -3.31418
C         -0.86091        1.99975       -2.15759
C          0.94799       -3.19277       -0.34079
C          0.30045       -4.21573       -1.00594
C         -0.42492       -3.93422       -2.14354
C         -0.51119       -2.64272       -2.63550
C          0.16588       -1.60392       -1.96909
Cl         1.20763       -0.37078        3.40992
Cl        -1.88759       -1.11643        2.91443
C         -1.34213       -2.38742       -3.84398
C          1.57432       -0.70698       -4.38576
H         -0.35402        3.43751       -3.65241
H         -1.47183        2.68302       -1.59419
H          1.49957       -3.39221        0.56631
H          0.35466       -5.22466       -0.63094
H          1.03274        1.86528       -4.93416
H         -0.94651       -4.72355       -2.65833
C         -4.61574       -2.95369       -1.34331
C         -3.85191       -3.16722       -0.20196
C         -2.91224       -2.20538        0.13844
C         -2.73107       -1.09381       -0.64309
C         -3.48158       -0.90670       -1.77831
C         -4.44881       -1.83393       -2.14927
H         -5.37503       -3.66534       -1.60665
H         -2.33565       -2.30960        1.03964
H         -3.29617       -0.03570       -2.38235
C         -3.84736        3.63826        1.55497
C         -4.10889        3.20972        0.26103
C         -3.38054        2.13109       -0.22456
C         -2.41475        1.52580        0.54309
C         -2.18233        1.96215        1.82668
C         -2.89972        3.02317        2.36122
H         -4.40087        4.47127        1.94782
H         -3.56092        1.75780       -1.21680
H         -1.44588        1.46557        2.42850
C          5.79925       -2.36529        1.19908
C          5.30653       -2.46825       -0.09667
C          4.04109       -1.95586       -0.35026
C          3.30837       -1.37049        0.65286
C          3.81001       -1.27979        1.92556
C          5.07034       -1.77801        2.22639
H          6.77570       -2.75197        1.42261
H          3.61864       -2.01664       -1.33988
H          3.19753       -0.82802        2.68332
C          2.73619        3.50363       -1.21859
C          3.38408        2.40799       -1.77646
C          3.00944        1.14372       -1.34090
C          2.02465        0.98772       -0.39670
C          1.40135        2.08560        0.15102
C          1.75054        3.36961       -0.24734
H          3.02362        4.48823       -1.53256
H          3.51527        0.27110       -1.71677
H          0.65046        1.94731        0.90799
Pd        -0.15214       -0.47340        1.63093
C         -4.44582       -3.93916        2.10683
C         -4.02062       -4.39779        0.69947
C         -2.67923       -5.14982        0.78356
C         -5.08869       -5.36393        0.15292
H         -3.69318       -3.29284        2.55679
H         -5.38116       -3.38170        2.06358
H         -4.59065       -4.79274        2.76862
H         -1.89768       -4.52000        1.20703
H         -2.76736       -6.03747        1.40956
H         -2.35409       -5.46597       -0.20725
H         -5.18499       -6.23794        0.79699
H         -6.06518       -4.88256        0.10344
H         -4.82470       -5.71597       -0.84421
C         -5.43273       -2.87409       -4.22935
C         -5.37116       -1.60540       -3.35639
C         -4.87520       -0.44062       -4.23668
C         -6.78092       -1.26741       -2.84013
H         -4.44041       -3.15412       -4.58027
H         -5.84653       -3.71908       -3.68110
H         -6.06223       -2.71161       -5.10415
H         -4.88933        0.50199       -3.69056
H         -3.85979       -0.62021       -4.58873
H         -5.51305       -0.31893       -5.11204
H         -7.18332       -2.08262       -2.23940
H         -6.75866       -0.37331       -2.21721
H         -7.46793       -1.08719       -3.66676
C         -6.51302        3.92118        0.13565
C         -5.15645        3.93701       -0.59289
C         -5.33681        3.26273       -1.96758
C         -4.69980        5.39009       -0.81590
H         -6.83321        2.89747        0.32885
H         -6.45759        4.44079        1.09135
H         -7.28259        4.40827       -0.46297
H         -6.09207        3.78202       -2.55733
H         -4.40810        3.27663       -2.53789
H         -5.65968        2.22787       -1.85551
H         -5.41534        5.93439       -1.43195
H         -4.59966        5.92184        0.12972
H         -3.73252        5.41623       -1.31770
C         -1.60591        2.68188        4.52876
C         -2.68960        3.50549        3.80373
C         -4.01005        3.35777        4.58191
C         -2.25688        4.98247        3.79105
H         -0.64403        2.76358        4.02434
H         -1.47154        3.03435        5.55115
H         -1.88036        1.62827        4.57745
H         -4.34169        2.31960        4.58075
H         -3.88982        3.67302        5.61821
H         -4.80081        3.96212        4.13904
H         -2.08278        5.34679        4.80333
H         -1.33539        5.10818        3.22464
H         -3.01778        5.61492        3.33532
C          5.29080       -4.29320       -1.81492
C          6.09777       -3.11196       -1.24381
C          7.46566       -3.63815       -0.76900
C          6.33277       -2.06381       -2.34767
H          5.09131       -5.03311       -1.04003
H          4.33303       -3.96275       -2.21541
H          5.83612       -4.78543       -2.61997
H          8.08177       -2.83002       -0.37514
H          7.34711       -4.39370        0.00747
H          8.01125       -4.09593       -1.59410
H          6.89186       -1.21358       -1.95780
H          6.89981       -2.48913       -3.17549
H          5.39026       -1.69065       -2.74677
C          4.69632       -1.01304        4.62512
C          5.66507       -1.69657        3.63967
C          6.97047       -0.88128        3.59553
C          5.95651       -3.11906        4.15172
H          3.75955       -1.56465        4.70130
H          5.13104       -0.96238        5.62321
H          4.47144        0.00605        4.31135
H          7.71081       -1.35280        2.95034
H          6.78411        0.12220        3.21325
H          7.40621       -0.78832        4.59016
H          6.36152       -3.09421        5.16323
H          5.04476       -3.71591        4.16761
H          6.67928       -3.62912        3.51603
C          4.73269        4.00873       -3.22741
C          4.55923        2.55243       -2.75479
C          4.32251        1.67068       -3.99385
C          5.84924        2.10395       -2.04433
H          4.97859        4.66753       -2.39493
H          5.54152        4.08533       -3.95402
H          3.82319        4.37542       -3.70322
H          5.14161        1.77124       -4.70576
H          4.24709        0.61811       -3.72538
H          3.40217        1.96043       -4.49875
H          5.77475        1.06824       -1.71469
H          6.71042        2.18513       -2.70728
H          6.03873        2.71954       -1.16523
C          1.33461        4.48135        1.95812
C          1.10441        4.58436        0.43862
C         -0.40416        4.60720        0.14315
C          1.71320        5.91175       -0.05360
H          0.93163        5.35186        2.47481
H          0.85610        3.59497        2.37142
H          2.39940        4.42061        2.18204
H         -0.88896        5.44758        0.63944
H         -0.58587        4.70031       -0.92696
H         -0.88308        3.69470        0.49070
H          1.25517        6.75890        0.45693
H          2.78465        5.94864        0.14248
H          1.55029        6.04620       -1.12279
H         -2.34112       -2.80400       -3.71367
H          2.27715       -0.16918       -5.02308
H         -0.90006       -2.84982       -4.72769
H         -1.45311       -1.32034       -4.03914
H          0.96931       -1.34580       -5.02974
H          2.15377       -1.34999       -3.72116
