105
-153.07028101
Cl         0.48161        2.09577        2.99035
Pd        -0.30040        1.46940        0.96448
P         -1.23175        0.73614       -1.02510
N         -0.23640       -0.40221       -1.91452
C          0.31128       -1.64938       -1.64724
C          0.24821       -2.29678       -0.38791
C          0.94819       -3.50621       -0.19483
C          0.87568       -4.17762        1.15561
C          1.94827       -5.25463        1.37989
C          2.05783       -6.17801        0.16307
C          2.42157       -5.37982       -1.09847
C          1.65922       -4.08655       -1.24747
C          1.67276       -3.45501       -2.48362
C          1.01835       -2.26691       -2.67882
H          1.06715       -1.77819       -3.63642
H          2.22603       -3.90286       -3.29177
H          3.49411       -5.15239       -1.09486
H          2.79016       -6.97725        0.34548
H          2.91734       -4.77116        1.55612
H          0.95204       -3.41034        1.93563
C         -0.69287       -1.86099        0.67207
C         -0.20995       -1.23395        1.85444
C         -1.10432       -1.03208        2.91062
C         -2.41649       -1.41637        2.80915
C         -2.89836       -2.05508        1.67262
C         -4.33801       -2.51381        1.67389
C         -4.80330       -3.21042        0.38257
C         -3.67541       -4.02421       -0.25812
C         -2.47466       -3.12169       -0.57412
C         -2.02833       -2.29847        0.60849
H         -1.63463       -3.72815       -0.93441
H         -4.02816       -4.53979       -1.16263
H         -5.14835       -2.45776       -0.33502
H         -4.97754       -1.64796        1.88715
H         -3.09156       -1.23648        3.62865
H         -0.75350       -0.53476        3.79770
N          1.11092       -0.78203        1.98072
P          1.74925        0.24880        0.69392
C          2.92715       -0.66961       -0.29804
C          3.55455       -1.74367        0.28483
C          4.50767       -2.45149       -0.42470
C          4.84340       -2.07556       -1.71822
C          4.20741       -0.97742       -2.28305
C          3.25819       -0.26806       -1.56982
H          2.77169        0.59117       -2.00078
H          4.45735       -0.68388       -3.28825
C          5.83130       -2.86561       -2.50337
H          4.99090       -3.30404        0.02086
H          3.28435       -2.02786        1.28947
C          2.72163        1.61332        1.34054
C          3.52241        1.42780        2.44106
C          4.27830        2.48147        2.92248
C          4.24401        3.72039        2.29609
C          3.43032        3.88444        1.18300
C          2.67591        2.83020        0.70162
H          2.04627        2.95312       -0.16575
H          3.38766        4.84446        0.69756
C          5.03188        4.86383        2.83386
H          4.89814        2.34798        3.79255
H          3.55370        0.46208        2.91950
H          1.32082       -0.29576        2.84317
H         -0.26765       -0.11332       -2.88462
C         -1.04793        2.31144       -1.86572
C         -2.09763        3.19457       -1.95196
C         -1.91015        4.42494       -2.55468
C         -0.66778        4.78265       -3.06173
C          0.37941        3.87569       -2.96621
C          0.18872        2.64483       -2.36487
H          0.99980        1.94055       -2.27792
H          1.34477        4.13937       -3.36332
C         -0.47385        6.10068       -3.72723
H         -2.72930        5.11953       -2.62973
H         -3.05524        2.92295       -1.53828
C         -2.95274        0.26756       -1.21843
C         -3.89009        0.56298       -0.25809
C         -5.21880        0.24837       -0.46793
C         -5.62078       -0.36541       -1.64628
C         -4.66494       -0.63827       -2.61529
C         -3.33563       -0.31843       -2.40187
H         -2.59210       -0.52337       -3.15548
H         -4.96806       -1.10006       -3.53935
C         -7.05454       -0.69122       -1.88160
H         -5.95463        0.48473        0.28159
H         -3.58192        1.06987        0.63987
Cl        -2.21670        2.52789        1.48203
H          2.25659       -5.99192       -1.99445
H          1.73781       -5.83291        2.29065
H          1.09849       -6.68766        0.00785
H         -0.12182       -4.61720        1.27341
H         -3.36167       -4.81742        0.43205
H         -2.72170       -2.44936       -1.40116
H         -4.47751       -3.19288        2.52369
H         -5.67806       -3.84676        0.57718
H          5.33323       -3.65499       -3.06813
H          6.36859       -2.23270       -3.21102
H          6.56971       -3.33347       -1.85076
H          5.31933        5.55287        2.03846
H          4.45037        5.42185        3.56892
H          5.94603        4.51891        3.31902
H         -0.75716        6.04885       -4.77938
H         -1.08058        6.87309       -3.25249
H          0.56791        6.42006       -3.67447
H         -7.56335        0.13623       -2.37785
H         -7.15866       -1.57668       -2.51036
H         -7.57254       -0.89035       -0.94232
