171
-217.84481641
P         -1.60229        0.35863       -0.33276
P          1.62825       -0.43394       -0.36094
C         -0.89560        1.28780       -1.69442
C          0.88985       -1.41504       -1.67285
C         -0.12514        0.64967       -2.65899
C          0.46373        1.42498       -3.67556
C          0.23345        2.79069       -3.70571
C         -0.55332        3.40033       -2.75145
C         -1.11097        2.64326       -1.73987
C          1.09778       -2.77301       -1.65858
C          0.47968       -3.58177       -2.59147
C         -0.36187       -3.02071       -3.52824
C         -0.58370       -1.65414       -3.56226
C          0.06747       -0.82624       -2.62716
Cl         1.68225        0.34686        2.77303
Cl        -1.55133       -0.43774        2.85068
C         -1.51931       -1.09670       -4.57755
C          1.29858        0.79156       -4.73243
H         -0.73367        4.46194       -2.79501
H         -1.72066        3.11030       -0.98310
H          1.74571       -3.20510       -0.91351
H          0.64814       -4.64622       -2.58027
H          0.67656        3.37851       -4.49181
H         -0.86293       -3.64805       -4.24618
C         -3.95046       -3.27773       -1.63446
C         -2.92866       -3.43600       -0.70694
C         -2.21867       -2.30494       -0.32478
C         -2.51056       -1.08354       -0.87803
C         -3.50866       -0.94652       -1.81161
C         -4.25877       -2.04907       -2.20485
H         -4.53727       -4.13559       -1.90629
H         -1.43778       -2.36401        0.41328
H         -3.70041        0.03039       -2.22200
C         -4.27253        3.00554        2.20950
C         -4.85811        2.03554        1.40652
C         -4.01966        1.23971        0.63704
C         -2.65968        1.42575        0.66290
C         -2.09886        2.39382        1.45989
C         -2.89759        3.19399        2.26698
H         -4.90642        3.62768        2.81417
H         -4.42273        0.45864        0.01836
H         -1.02874        2.50651        1.46336
C          4.42539       -2.82968        2.29478
C          3.08125       -3.18102        2.24669
C          2.25168       -2.46340        1.39541
C          2.74699       -1.42825        0.64189
C          4.07490       -1.08839        0.71096
C          4.94355       -1.78143        1.54310
H          5.08258       -3.37992        2.93988
H          1.20274       -2.69969        1.33479
H          4.43470       -0.26378        0.12118
C          3.85314        3.32383       -1.54480
C          2.84184        3.40509       -0.59496
C          2.14878        2.24305       -0.28463
C          2.45778        1.05800       -0.90423
C          3.45957        0.99316       -1.84177
C          4.18893        2.12928       -2.17296
H          4.40359        4.21139       -1.78975
H          1.37510        2.25678        0.46403
H          3.68964        0.04401       -2.29646
Pd         0.02236       -0.06078        1.30116
C         -2.42024       -5.83776       -1.24117
C         -2.64166       -4.81874       -0.10731
C         -3.83989       -5.25167        0.75521
C         -1.37906       -4.79678        0.77490
H         -2.17005       -6.81944       -0.83929
H         -3.31150       -5.94983       -1.85704
H         -1.60381       -5.52065       -1.88892
H         -3.66391       -6.22791        1.20662
H         -4.01499       -4.53455        1.55703
H         -4.75011       -5.31607        0.15983
H         -1.15710       -5.79207        1.15956
H         -0.51547       -4.45876        0.20306
H         -1.50871       -4.13546        1.63114
C         -5.52202       -0.52754       -3.80651
C         -5.44216       -1.93208       -3.17668
C         -6.74693       -2.19924       -2.40476
C         -5.29693       -2.96550       -4.31066
H         -6.34555       -0.46920       -4.51806
H         -5.69148        0.23561       -3.04737
H         -4.60440       -0.28412       -4.34125
H         -6.75002       -3.19948       -1.97272
H         -6.86683       -1.48448       -1.59134
H         -7.61357       -2.11380       -3.06005
H         -6.11574       -2.87562       -5.02436
H         -4.36358       -2.82154       -4.85287
H         -5.30631       -3.98443       -3.92623
C         -6.84606        1.47609        2.82549
C         -6.38256        1.85476        1.40708
C         -6.82227        0.74146        0.43571
C         -7.05301        3.17127        0.97345
H         -7.92424        1.31984        2.85543
H         -6.36169        0.55707        3.15496
H         -6.60192        2.25815        3.54348
H         -7.90637        0.62912        0.44023
H         -6.51853        0.97113       -0.58538
H         -6.39073       -0.21864        0.71831
H         -8.13736        3.06551        0.94447
H         -6.81620        3.98249        1.66081
H         -6.71577        3.46522       -0.02038
C         -2.83263        4.01420        4.63990
C         -2.30611        4.25011        3.21127
C         -2.72097        5.64944        2.72506
C         -0.76755        4.17573        3.25231
H         -2.39281        4.72473        5.33953
H         -3.91465        4.12676        4.69118
H         -2.58319        3.00870        4.97840
H         -2.36022        5.82706        1.71196
H         -3.80514        5.75758        2.71774
H         -2.31033        6.42519        3.37112
H         -0.36232        4.89865        3.96009
H         -0.43096        3.18545        3.55921
H         -0.34115        4.39997        2.27653
C          2.09781       -5.47837        2.15645
C          2.49107       -4.32042        3.08940
C          1.24623       -3.81019        3.84323
C          3.50076       -4.84353        4.12937
H          1.64746       -6.29770        2.71649
H          1.38170       -5.14888        1.40567
H          2.97190       -5.86532        1.63300
H          1.49887       -2.95119        4.46440
H          0.45849       -3.50344        3.15715
H          0.83591       -4.58602        4.48918
H          3.05022       -5.61858        4.74930
H          4.37522       -5.27920        3.64670
H          3.83215       -4.04167        4.78896
C          7.07767       -1.68340        0.24106
C          6.42220       -1.37121        1.59739
C          7.18510       -2.12896        2.70113
C          6.52559        0.13911        1.88892
H          6.57736       -1.15086       -0.56611
H          8.12779       -1.39182        0.23683
H          7.02076       -2.74942        0.02171
H          7.19246       -3.20182        2.51019
H          8.22264       -1.79861        2.75021
H          6.73482       -1.95361        3.67804
H          7.56681        0.44867        1.97708
H          6.07171        0.73225        1.09613
H          6.01945        0.38540        2.82207
C          2.64886        4.47451        1.66264
C          2.49646        4.70416        0.14654
C          1.04636        5.10159       -0.17923
C          3.42396        5.86376       -0.26421
H          2.41190        5.37987        2.22109
H          1.98903        3.68299        2.01464
H          3.67088        4.18502        1.90601
H          0.35145        4.30397        0.07814
H          0.75172        5.99647        0.36864
H          0.93739        5.30726       -1.24342
H          4.46567        5.62863       -0.04654
H          3.33273        6.08193       -1.32809
H          3.16970        6.77278        0.28084
C          6.36489        0.97389       -2.64130
C          5.36163        2.02089       -3.16035
C          6.10220        3.36320       -3.31896
C          4.83589        1.59005       -4.53965
H          6.71959        1.24119       -1.64604
H          5.90956       -0.01382       -2.58379
H          7.23024        0.90176       -3.29991
H          5.44001        4.13330       -3.71420
H          6.50264        3.70524       -2.36474
H          6.93871        3.26339       -4.01056
H          4.32850        0.62776       -4.48483
H          4.13224        2.32578       -4.92764
H          5.65192        1.49601       -5.25599
H         -1.73550       -0.04397       -4.39164
H          1.86305       -0.05280       -4.33411
H         -2.46757       -1.63342       -4.55927
H         -1.10451       -1.18600       -5.58256
H          2.01101        1.50372       -5.14902
H          0.67949        0.42705       -5.55278
