111
-148.55555946
P         -2.70124        1.92682       -0.25556
P          0.06543        0.54074        0.38452
C         -1.94476        2.14113        1.37991
C         -0.71185        1.57996        1.63356
C         -3.58009        3.46136       -0.80270
C         -2.77921        4.23295       -1.82869
C         -2.59078        2.85477        2.36928
H         -3.56365        3.27535        2.17503
C         -1.99270        3.01110        3.60797
H         -2.49646        3.56844        4.38079
C         -0.75346        2.45237        3.85634
H         -0.28977        2.57195        4.82167
C         -0.11248        1.72924        2.86647
H          0.84644        1.26926        3.04797
Pd        -1.05727        0.99169       -1.58488
Cl        -2.39902        1.38308       -3.33859
Cl         0.64026        0.07173       -2.73310
C         -4.92860        2.91603       -1.30721
C         -4.10063        0.71510       -0.28873
H         -1.80334        4.52407       -1.43286
H         -2.60338        3.62913       -2.71953
H         -3.30202        5.13883       -2.14412
H         -4.84657        2.71583       -2.38449
H         -5.71425        3.68039       -1.20679
H         -3.90847        0.05417       -1.14463
C         -5.32595        1.60676       -0.56634
C         -4.17571       -0.07980        0.99696
H         -3.73175        4.06911        0.09831
H         -5.80366        1.85871        0.39041
H         -6.08415        1.04844       -1.13615
H         -4.29754        0.58284        1.85576
H         -5.01941       -0.77378        0.98952
H         -3.26425       -0.65927        1.15681
C         -1.25470       -3.77634        0.98957
C         -0.62465       -3.38740       -0.22234
C         -0.25105       -2.06318       -0.36666
C         -0.40659       -1.16534        0.65521
C         -0.89115       -1.56591        1.87240
C         -1.28792       -2.87513        2.08729
O         -1.92443       -5.02408        1.07239
C         -0.32463       -4.34483       -1.38714
H          0.15172       -1.70484       -1.29861
H         -0.97316       -0.83553        2.65864
C         -1.73426       -3.26656        3.50579
C          4.58575        0.92222        0.03474
C          3.76034        2.03604       -0.27612
C          2.38707        1.88633       -0.16559
C          1.84067        0.72219        0.30650
C          2.63837       -0.30942        0.72777
C          4.01826       -0.22761        0.64539
O          5.95437        0.92483       -0.33826
C          4.30045        3.40305       -0.72904
H          1.72290        2.67924       -0.46669
H          2.16702       -1.19911        1.10984
C          4.84098       -1.39152        1.22311
C         -1.27082       -4.03349       -2.55886
C          1.13593       -4.14399       -1.84870
C         -0.47105       -5.82247       -0.98538
C         -3.11362       -2.65159        3.79566
C         -1.79967       -4.79149        3.69915
C         -0.71377       -2.72502        4.53139
C         -3.27806       -4.94607        0.65721
H         -1.15483       -3.00204       -2.89036
H         -1.06526       -4.68364       -3.40873
H         -2.31119       -4.17474       -2.27200
H          1.30172       -3.14423       -2.24646
H          1.82464       -4.29456       -1.01804
H          1.39634       -4.85324       -2.63382
H          0.13989       -6.04531       -0.11132
H         -1.50273       -6.06424       -0.74126
H         -0.16061       -6.48239       -1.79512
H         -3.44884       -2.90413        4.80126
H         -3.08046       -1.56534        3.71692
H         -3.86129       -3.01302        3.09217
H         -2.02315       -5.04717        4.73464
H         -2.57325       -5.23508        3.07684
H         -0.85011       -5.25376        3.43171
H          0.28934       -3.08305        4.30110
H         -0.68873       -1.63663        4.54226
H         -0.96485       -3.05354        5.53961
H         -3.82959       -4.26698        1.30540
H         -3.33453       -4.57680       -0.36565
H         -3.72772       -5.93789        0.70846
C          6.16704        0.41637       -1.64476
C          5.80754        3.55695       -0.45985
C          4.02442        3.58834       -2.23043
C          3.58619        4.52380        0.05842
C          4.29515       -1.76175        2.62033
C          4.71701       -2.61260        0.29666
C          6.32516       -1.02819        1.40244
H          6.03300        3.35930        0.58751
H          6.38876        2.86327       -1.06264
H          6.14827        4.56446       -0.69731
H          4.52931        2.82609       -2.82049
H          2.95791        3.51806       -2.44194
H          4.37154        4.56274       -2.57311
H          4.00471        5.49921       -0.18842
H          2.52169        4.56210       -0.16633
H          3.69922        4.37145        1.13143
H          4.29611       -0.89159        3.27617
H          3.27719       -2.14467        2.56982
H          4.90860       -2.53339        3.08481
H          5.10232       -2.39392       -0.69730
H          5.27343       -3.46123        0.69367
H          3.67576       -2.91462        0.18959
H          6.86867       -1.83061        1.90073
H          6.42967       -0.12364        2.00054
H          6.80686       -0.85126        0.44381
H          5.61022        1.00654       -2.37062
H          7.23040        0.46335       -1.88053
H          5.83053       -0.61731       -1.70315
