64
-97.21410746
Cl        -1.56389       -1.31470       -2.56767
Cl         1.67473       -1.28762       -2.84967
P          1.97355       -0.61337        0.25186
C          2.19558       -2.28814        1.01108
C          3.75589       -0.16772       -0.02905
P         -1.29679       -0.14546        0.42641
C          1.26033        0.59093        1.43006
C         -0.16932        0.82346        1.49865
C         -0.39664        1.93296        2.41322
C          0.89074        2.38484        2.90935
C          1.91599        1.56860        2.28454
H         -1.36999        2.31065        2.73246
H          1.05799        3.19250        3.62530
Pd         0.18317       -0.94100       -1.21707
H          2.99295        1.65480        2.44326
C         -5.04273        2.08353       -0.93384
C         -4.08906        2.75146       -0.19247
C         -2.95073        2.08683        0.22399
C         -2.76166        0.76311       -0.10444
C         -3.71567        0.09584       -0.83878
C         -4.85814        0.75433       -1.25701
H         -5.93088        2.59957       -1.26046
H         -4.23035        3.78935        0.06119
H         -2.20256        2.60358        0.79781
H         -3.55917       -0.94022       -1.09163
H         -5.59999        0.23016       -1.83688
C         -2.62061       -3.96527        2.49541
C         -2.39652       -2.82233        3.23859
C         -2.00157       -1.65617        2.60739
C         -1.83252       -1.64577        1.24225
C         -2.06032       -2.77908        0.49678
C         -2.45502       -3.94592        1.12414
H         -2.92791       -4.87410        2.98669
H         -2.52737       -2.83813        4.30814
H         -1.81652       -0.75550        3.17117
H         -1.93504       -2.73868       -0.57346
H         -2.63371       -4.83612        0.54372
C          4.15056       -0.23145       -1.48821
H          3.89456        0.84914        0.36068
C          4.50277       -1.20049        0.83765
H          4.65737       -0.79876        1.84984
C          3.71446       -2.53409        0.92754
H          5.50891       -1.37058        0.42726
C          1.65847       -2.29733        2.42586
H          1.64266       -3.00035        0.38327
H          4.04118       -3.12009        1.79861
H          3.94642       -3.15437        0.04962
H          0.59672       -2.04508        2.44933
H          1.78319       -3.27511        2.89710
H          2.18276       -1.56224        3.03978
H          3.97415       -1.23153       -1.88728
H          3.57564        0.46880       -2.09595
H          5.20945       -0.00256       -1.62676
Fe         0.79107        2.47003        0.84550
C          1.29725        2.23228       -1.13379
C          2.16076        3.20120       -0.48582
C          1.33163        4.28682        0.00876
C         -0.04904        3.96223       -0.30569
C         -0.06802        2.70390       -1.02962
H          1.61302        1.33457       -1.66816
H          3.25067        3.15195       -0.42975
H          1.68227        5.18195        0.52707
H         -0.91720        4.58894       -0.08970
H         -0.94500        2.21324       -1.45584
