111
-148.54930887
P         -1.60673        2.81722       -0.02309
P         -0.54734       -0.12119        0.49653
C         -1.63351        2.12673        1.66193
C         -1.25373        0.81525        1.86442
C         -0.34259        4.15158       -0.20137
C          0.67384        3.78319       -1.26148
C         -1.98739        2.90651        2.74496
H         -2.22241        3.94684        2.59836
C         -1.99803        2.36152        4.01732
H         -2.27983        2.97146        4.86009
C         -1.63932        1.04153        4.21084
H         -1.64104        0.61967        5.20240
C         -1.25185        0.26914        3.13090
H         -0.92368       -0.74952        3.26732
Pd        -1.27122        0.97914       -1.39370
Cl        -2.47968        1.97955       -2.99494
Cl        -0.80164       -0.88185       -2.56669
C         -1.19152        5.39269       -0.55005
C         -3.13811        3.72329       -0.55028
H          0.18373        3.62545       -2.22443
H          1.41951        4.57085       -1.39317
H          1.20141        2.86123       -1.00646
H         -0.62269        6.04688       -1.22684
H         -1.37045        5.98985        0.35624
H         -3.62283        3.09130       -1.30614
C         -2.55701        5.00344       -1.18602
C         -4.10392        3.99241        0.58416
H          0.14120        4.26226        0.77820
H         -3.28067        5.82586       -1.08675
H         -2.42362        4.85359       -2.26772
H         -4.35614        3.07411        1.11889
H         -3.67527        4.69383        1.30042
H         -5.03340        4.43569        0.21945
C         -0.87839       -4.65336        0.70496
C          0.26838       -4.00135        1.23125
C          0.33159       -2.62039        1.14618
C         -0.71484       -1.89344        0.64136
C         -1.87576       -2.50786        0.25237
C         -2.00680       -3.88619        0.30932
O         -0.86382       -6.05647        0.49668
C          1.44911       -4.73350        1.89078
H          1.21817       -2.09394        1.45813
H         -2.67917       -1.89576       -0.12205
C         -3.36917       -4.49445       -0.06398
C          3.74455        1.28703       -0.08275
C          3.18797        0.33171       -0.97428
C          1.88199       -0.07522       -0.76368
C          1.17003        0.36112        0.32136
C          1.74269        1.18922        1.25059
C          3.04455        1.63659        1.10296
O          4.94807        1.95690       -0.42211
C          3.93800       -0.27095       -2.17288
H          1.38166       -0.70568       -1.47881
H          1.15249        1.50387        2.09377
C          3.64434        2.47994        2.24033
C          1.81782       -4.02393        3.21260
C          1.11211       -6.19262        2.24349
C          2.66239       -4.69829        0.94637
C         -4.49370       -3.70883        0.64619
C         -3.57085       -4.39737       -1.58546
C         -3.49849       -5.96192        0.38010
C         -0.36311       -6.41543       -0.78054
H          2.60366       -4.56585        3.73821
H          2.18100       -3.01186        3.04183
H          0.95186       -3.96475        3.87135
H          1.92631       -6.66145        2.79563
H          0.21268       -6.24180        2.85624
H          0.93833       -6.78513        1.34850
H          2.44310       -5.19756        0.00454
H          2.94845       -3.67188        0.71894
H          3.52175       -5.19378        1.39734
H         -4.54899       -2.67826        0.29984
H         -5.46494       -4.16614        0.45896
H         -4.33106       -3.69455        1.72354
H         -2.80714       -4.95844       -2.12032
H         -4.54355       -4.79354       -1.87569
H         -3.51607       -3.36205       -1.92044
H         -3.28862       -6.06123        1.44451
H         -4.50285       -6.34170        0.19414
H         -2.80145       -6.59982       -0.15801
H          0.66526       -6.07473       -0.88847
H         -0.39695       -7.49974       -0.88856
H         -0.96713       -5.95625       -1.56129
C          4.72369        3.14262       -1.16723
C          5.45423       -0.02166       -2.10169
C          3.73131       -1.80196       -2.18709
C          3.37759        0.32508       -3.47523
C          2.99521        3.87402        2.24006
C          3.35786        1.79039        3.59270
C          5.17165        2.62271        2.12318
H          5.68403        1.03783       -2.18582
H          5.85788       -0.37668       -1.15411
H          5.97524       -0.53692       -2.90830
H          4.30328       -2.26371       -2.99144
H          4.05920       -2.24221       -1.24595
H          2.68655       -2.06870       -2.33736
H          3.87546       -0.10236       -4.34508
H          2.31049        0.12527       -3.56790
H          3.51623        1.40407       -3.50575
H          1.91908        3.80169        2.39323
H          3.40479        4.49439        3.03677
H          3.16309        4.38680        1.29481
H          3.74482        0.77175        3.59400
H          3.83075        2.33101        4.41219
H          2.29128        1.74542        3.80676
H          5.64451        1.64394        2.05055
H          5.58577        3.13736        2.98990
H          5.44828        3.19280        1.23963
H          5.68211        3.60458       -1.40489
H          4.19718        2.90990       -2.09136
H          4.12179        3.84087       -0.58796
