171
-217.84644160
P         -1.60038        0.42891       -0.34568
P          1.63080       -0.41694       -0.36986
C         -0.87972        1.36594       -1.69730
C          0.89296       -1.35691       -1.70951
C         -0.08975        0.74231       -2.65643
C          0.53549        1.53497       -3.63800
C          0.31453        2.90205       -3.64671
C         -0.49688        3.49710       -2.70413
C         -1.08427        2.72391       -1.72197
C          1.10163       -2.71416       -1.73746
C          0.50278       -3.48910       -2.71133
C         -0.32397       -2.89653       -3.64204
C         -0.54908       -1.53011       -3.63000
C          0.08782       -0.73556       -2.65727
Cl         1.58673        0.31095        2.85852
Cl        -1.55552       -0.42619        2.80666
C         -1.44633       -0.92776       -4.65417
C          1.41524        0.92933       -4.67539
H         -0.66887        4.56068       -2.73030
H         -1.70624        3.18162       -0.96953
H          1.73581       -3.17001       -0.99413
H          0.67642       -4.55241       -2.73911
H          0.78767        3.50231       -4.40552
H         -0.80627       -3.49827       -4.39386
C         -3.88911       -3.29304       -1.49963
C         -2.89853       -3.38859       -0.52931
C         -2.18052       -2.24034       -0.22484
C         -2.46065       -1.05422       -0.85588
C         -3.44506       -0.97379       -1.80937
C         -4.18341       -2.10076       -2.15090
H         -4.46397       -4.16494       -1.74821
H         -1.40488       -2.26427        0.52084
H         -3.63871       -0.02064       -2.27155
C         -4.36361        2.98206        2.18930
C         -4.90933        1.97988        1.39566
C         -4.04074        1.22209        0.62331
C         -2.69064        1.46640        0.64026
C         -2.16754        2.46113        1.42905
C         -2.99746        3.23466        2.23080
H         -5.01241        3.58047        2.80075
H         -4.42135        0.42241        0.01248
H         -1.10257        2.61667        1.42806
C          4.32872       -2.97402        2.22634
C          2.96008       -3.21776        2.23826
C          2.15709       -2.44660        1.40915
C          2.70387       -1.46186        0.62466
C          4.05617       -1.22829        0.63139
C          4.90043       -1.98888        1.43005
H          4.97179       -3.55381        2.86133
H          1.09032       -2.59532        1.39786
H          4.44533       -0.43443        0.01936
C          3.91879        3.29475       -1.56612
C          2.94299        3.39314       -0.58148
C          2.23314        2.24514       -0.25851
C          2.50024        1.05717       -0.89187
C          3.46897        0.97388       -1.86109
C          4.20162        2.10019       -2.21834
H          4.49056        4.16550       -1.82591
H          1.47477        2.27366        0.50498
H          3.65367        0.01975       -2.32465
Pd         0.02725        0.04033        1.26627
C         -2.43589       -4.45808        1.70436
C         -2.56622       -4.70527        0.18743
C         -1.23763       -5.24636       -0.36377
C         -3.66459       -5.76366       -0.03240
H         -2.25600       -5.39175        2.23696
H         -1.60945       -3.78740        1.93372
H         -3.34798       -4.01322        2.10140
H         -0.94906       -6.16877        0.13983
H         -1.32112       -5.45443       -1.43015
H         -0.43796       -4.51972       -0.22774
H         -3.44706       -6.66956        0.53334
H         -4.63537       -5.39153        0.29474
H         -3.73789       -6.04585       -1.08231
C         -6.66341       -2.29813       -2.40298
C         -5.34395       -2.04380       -3.15446
C         -5.14886       -3.12086       -4.23855
C         -5.43225       -0.66864       -3.84533
H         -6.66349       -3.27909       -1.92885
H         -6.81276       -1.55089       -1.62365
H         -7.51485       -2.25359       -3.08183
H         -5.15713       -4.12286       -3.81183
H         -5.94417       -3.07243       -4.98219
H         -4.19857       -2.98494       -4.75333
H         -4.50842       -0.43349       -4.37265
H         -6.24232       -0.65371       -4.57437
H         -5.62820        0.12320       -3.12283
C         -6.92703        1.82774       -0.08539
C         -6.41130        1.66522        1.35677
C         -7.21528        2.60600        2.27412
C         -6.63476        0.21459        1.82451
H         -7.99642        1.62551       -0.14274
H         -6.75497        2.84246       -0.44376
H         -6.42229        1.14295       -0.76577
H         -7.09492        3.64606        1.97148
H         -8.27880        2.37114        2.23205
H         -6.89715        2.50797        3.31187
H         -7.69541       -0.03587        1.82762
H         -6.12699       -0.49501        1.17208
H         -6.25029        0.07293        2.83431
C         -3.00115        5.69141        2.72825
C         -2.44570        4.32344        3.16214
C         -0.90604        4.38199        3.11888
C         -2.87425        4.01916        4.60982
H         -2.61626        6.48845        3.36418
H         -2.71687        5.91285        1.69959
H         -4.08882        5.71267        2.78677
H         -0.46883        3.42749        3.41185
H         -0.55325        4.63348        2.11997
H         -0.52731        5.14252        3.80147
H         -2.46970        4.75911        5.30016
H         -3.95843        4.02549        4.71391
H         -2.51393        3.03757        4.91724
C          1.31148       -3.54101        4.09433
C          2.30447       -4.25701        3.15823
C          3.34597       -4.99538        4.02011
C          1.55343       -5.29284        2.30318
H          0.83914       -4.24661        4.77733
H          1.82171       -2.78323        4.68834
H          0.52273       -3.04351        3.53131
H          4.06463       -5.52729        3.39690
H          3.88922       -4.30015        4.65984
H          2.86311       -5.72865        4.66598
H          1.09137       -6.05617        2.92899
H          0.76577       -4.82026        1.71976
H          2.23320       -5.78802        1.61007
C          6.84185       -0.63836        0.48926
C          6.41553       -1.74505        1.47491
C          7.15394       -3.04238        1.09726
C          6.81509       -1.31281        2.89731
H          6.36875        0.31184        0.73661
H          7.92061       -0.48616        0.52086
H          6.57535       -0.90158       -0.53426
H          6.93081       -3.84518        1.79889
H          6.86039       -3.37598        0.10210
H          8.23326       -2.89089        1.09782
H          7.88442       -1.11140        2.95857
H          6.28290       -0.40684        3.18680
H          6.57845       -2.08652        3.62678
C          3.62488        5.81898       -0.21538
C          2.63077        4.70243        0.15686
C          2.71524        4.46591        1.67765
C          1.21190        5.16235       -0.21810
H          3.40625        6.73143        0.33928
H          4.64808        5.52564        0.01888
H          3.56767        6.05919       -1.27683
H          2.52529        5.38782        2.22695
H          1.98614        3.72800        2.00904
H          3.70489        4.10449        1.95596
H          0.93826        6.07033        0.31895
H          1.14715        5.36915       -1.28577
H          0.47631        4.39477        0.01804
C          5.10491        3.10546       -4.34022
C          5.33907        2.04427       -3.24824
C          5.42762        0.66131       -3.92297
C          6.67369        2.32497       -2.53377
H          4.14573        2.95077       -4.83245
H          5.10816        4.11231       -3.92491
H          5.88434        3.05938       -5.10063
H          5.64627       -0.11865       -3.19389
H          4.49570        0.40998       -4.42824
H          6.22270        0.64502       -4.66829
H          7.50811        2.28231       -3.23357
H          6.67370        3.31186       -2.07219
H          6.85262        1.58985       -1.74951
H         -1.79851        0.05757       -4.34591
H          0.88466        0.82230       -5.62241
H         -2.32344       -1.55430       -4.81800
H         -0.93055       -0.81955       -5.60919
H          1.76903       -0.05696       -4.37212
H          2.29177        1.55274       -4.85286
