111
-148.55258187
P         -2.68291        2.07972        0.39127
P          0.13620        0.62390        0.23327
C         -1.51663        2.19884        1.77918
C         -0.27483        1.60902        1.68387
C         -3.75868        3.58775        0.32545
C         -3.74747        4.22785       -1.04479
C         -1.87028        2.86641        2.93498
H         -2.84920        3.30905        3.01748
C         -0.97418        2.94893        3.98689
H         -1.25097        3.47054        4.88852
C          0.27211        2.36171        3.88441
H          0.96867        2.42326        4.70429
C          0.62082        1.68466        2.72996
H          1.58245        1.20429        2.63976
Pd        -1.41371        1.26472       -1.36668
Cl        -3.11461        1.71393       -2.75072
Cl        -0.05962        0.39182       -2.93229
C         -5.13945        3.04390        0.74873
C         -3.96433        0.76657        0.63468
H         -2.73153        4.47746       -1.35930
H         -4.16539        3.54833       -1.78852
H         -4.34417        5.14283       -1.06596
H         -5.93036        3.62458        0.25186
H         -5.29021        3.20176        1.82678
H         -3.80897        0.01938       -0.15595
C         -5.28792        1.53028        0.42567
C         -3.82865        0.12747        1.99944
H         -3.36313        4.29108        1.07026
H         -6.07562        1.07683        1.04490
H         -5.62445        1.41331       -0.61507
H         -3.95600        0.87174        2.78776
H         -4.57746       -0.65296        2.15446
H         -2.84176       -0.32168        2.12795
C         -1.08531       -3.70838        0.93801
C         -0.84518       -2.85872        2.04830
C         -0.46965       -1.54882        1.80308
C         -0.38971       -1.06477        0.52404
C         -0.70773       -1.85627       -0.54654
C         -1.11005       -3.16841       -0.37330
O         -1.25806       -5.10406        1.13612
C         -0.94134       -3.35058        3.50067
H         -0.21901       -0.88748        2.61354
H         -0.61852       -1.43113       -1.53089
C         -1.54292       -3.97888       -1.60453
C          4.60504        0.58672       -0.63898
C          3.76888        1.49591       -1.33731
C          2.41818        1.51850       -1.02924
C          1.88661        0.63026       -0.13230
C          2.67217       -0.32007        0.46655
C          4.03032       -0.39402        0.20869
O          6.01691        0.67642       -0.76582
C          4.30710        2.45056       -2.41491
H          1.75574        2.22561       -1.49758
H          2.20235       -1.01488        1.14140
C          4.85166       -1.51946        0.85720
C         -2.03114       -4.42763        3.64894
C          0.42152       -3.91076        3.93568
C         -1.32220       -2.19184        4.45031
C         -2.20063       -3.05427       -2.65559
C         -0.30980       -4.64243       -2.23571
C         -2.58856       -5.04459       -1.22992
C         -0.05083       -5.85182        1.05717
H         -2.14358       -4.73081        4.68957
H         -2.99205       -4.05151        3.29928
H         -1.79096       -5.31705        3.07168
H          0.72368       -4.74486        3.30700
H          1.19354       -3.14490        3.86348
H          0.38871       -4.26116        4.96698
H         -0.52938       -1.44859        4.52006
H         -2.23101       -1.69512        4.11249
H         -1.50107       -2.56284        5.45925
H         -2.62694       -3.63726       -3.47149
H         -3.00279       -2.46787       -2.20820
H         -1.48106       -2.36668       -3.09716
H          0.42092       -3.89101       -2.53410
H          0.17702       -5.31706       -1.53536
H         -0.58492       -5.21593       -3.12046
H         -3.44837       -4.58386       -0.74465
H         -2.94168       -5.57498       -2.11391
H         -2.17655       -5.78256       -0.54638
H          0.79693       -5.18881        0.87931
H          0.10274       -6.39601        1.98894
H         -0.12076       -6.57735        0.24698
C          6.63061        1.54182        0.18090
C          5.49241        1.82115       -3.16946
C          3.21560        2.75429       -3.46690
C          4.73824        3.77055       -1.75859
C          6.01967       -1.94536       -0.05047
C          5.38339       -1.04198        2.21687
C          3.97554       -2.77404        1.08330
H          6.33842        1.65099       -2.50818
H          5.20664        0.86199       -3.59997
H          5.83115        2.46873       -3.97775
H          2.40737        3.35216       -3.04861
H          3.62942        3.31705       -4.30327
H          2.79032        1.83177       -3.86136
H          3.89822        4.23814       -1.24550
H          5.52456        3.60775       -1.02544
H          5.11255        4.47269       -2.50314
H          6.56400       -2.78586        0.37933
H          5.65308       -2.24445       -1.03187
H          6.72799       -1.13295       -0.19271
H          5.96454       -1.82374        2.70532
H          6.02141       -0.16850        2.10578
H          4.56089       -0.76953        2.87793
H          4.58269       -3.61500        1.41756
H          3.47432       -3.06866        0.16157
H          3.21731       -2.60547        1.84666
H          7.17536        2.32760       -0.34219
H          5.87809        1.99062        0.83048
H          7.34219        0.97830        0.78409
