105
-153.05899855
Cl         0.61702        3.72564        1.42098
Pd        -0.10483        1.97794        0.20127
P         -0.74839        0.23412       -1.29182
N          0.07105       -1.19243       -1.95703
C          0.15565       -2.51971       -1.54857
C         -0.15123       -2.98337       -0.24070
C          0.19637       -4.30245        0.12506
C          0.10434       -4.70890        1.57913
C          0.93928       -5.95047        1.92530
C          0.68156       -7.06940        0.91192
C          1.05615       -6.62088       -0.51018
C          0.69421       -5.19030       -0.83130
C          0.89975       -4.73943       -2.12863
C          0.65888       -3.43456       -2.47305
H          0.87411       -3.09490       -3.47146
H          1.28989       -5.42517       -2.86179
H          2.13535       -6.74480       -0.66069
H          1.22741       -7.98146        1.19187
H          2.00433       -5.68699        1.91268
H          0.41661       -3.86097        2.20211
C         -0.74342       -2.10619        0.80418
C          0.08153       -1.12123        1.40626
C         -0.37537       -0.44450        2.53710
C         -1.61888       -0.71392        3.04760
C         -2.46017       -1.64762        2.44856
C         -3.81391       -1.89599        3.05925
C         -4.40292       -3.25690        2.66063
C         -4.36458       -3.42924        1.13915
C         -2.93026       -3.32343        0.59060
C         -2.03345       -2.34056        1.31217
H         -2.46423       -4.31342        0.60780
H         -4.98936       -2.65528        0.67910
H         -5.42691       -3.37074        3.04398
H         -4.49239       -1.09216        2.75058
H         -1.96608       -0.18350        3.91795
H          0.25008        0.30423        2.98741
N          1.24294       -0.76326        0.72768
P          1.80452        0.84963        0.95243
C          2.92149        1.30471       -0.36769
C          3.15883        2.63575       -0.61490
C          3.93668        3.00414       -1.69693
C          4.46616        2.04027       -2.54501
C          4.21704        0.70087       -2.27504
C          3.44000        0.33414       -1.19109
H          3.22505       -0.70333       -0.99191
H          4.62908       -0.05303       -2.92385
C          5.30948        2.43385       -3.70740
H          4.12457        4.04502       -1.89744
H          2.69544        3.37704        0.01702
C          2.58798        0.94645        2.56058
C          3.28303       -0.15283        3.00506
C          3.89658       -0.12264        4.24522
C          3.80985        1.00704        5.04825
C          3.10864        2.10904        4.57713
C          2.49753        2.07502        3.33850
H          1.94220        2.92141        2.97211
H          3.04436        2.99389        5.18711
C          4.48990        1.05067        6.37243
H          4.44628       -0.97892        4.59684
H          3.33239       -1.03181        2.38132
H          1.09187       -0.87035       -0.27481
H          0.26077       -1.00028       -2.93279
C         -0.60736        1.41234       -2.64618
C         -1.70699        1.95582       -3.26593
C         -1.53550        2.86934       -4.28941
C         -0.26214        3.23886       -4.70261
C          0.83538        2.68487       -4.05824
C          0.66105        1.77134       -3.03497
H          1.51169        1.35193       -2.52287
H          1.82756        2.97894       -4.35502
C         -0.07666        4.24777       -5.78188
H         -2.39316        3.30790       -4.77022
H         -2.69442        1.67643       -2.93769
C         -2.48675       -0.17290       -1.13379
C         -3.05312       -0.92775       -2.13322
C         -4.40573       -1.21793       -2.09599
C         -5.19778       -0.75435       -1.05468
C         -4.60712        0.00710       -0.05540
C         -3.25478        0.29102       -0.09284
H         -2.79625        0.88072        0.68413
H         -5.21465        0.38297        0.74990
C         -6.65888       -1.04082       -1.02998
H         -4.85500       -1.80331       -2.87984
H         -2.43302       -1.28352       -2.94116
Cl        -2.04609        3.01444       -0.24634
H          0.58144       -7.27654       -1.25134
H          0.73108       -6.29271        2.94894
H         -0.38079       -7.34310        0.94002
H         -0.94184       -4.89355        1.84292
H         -4.82379       -4.38360        0.84563
H         -2.95438       -3.04576       -0.47037
H         -3.73816       -1.81588        4.15120
H         -3.81896       -4.05768        3.13166
H          6.36473        2.45242       -3.43180
H          5.18937        1.73345       -4.53515
H          5.03917        3.42573       -4.07246
H          3.95504        1.69837        7.06848
H          4.54401        0.05746        6.82040
H          5.50740        1.43102        6.27277
H         -0.90303        4.22012       -6.49349
H         -0.02477        5.25446       -5.36501
H          0.84450        4.06529       -6.33712
H         -7.20494       -0.31831       -1.63794
H         -6.87014       -2.03756       -1.41999
H         -7.05428       -0.99219       -0.01436
