72
-98.10100282
Fe         0.04700        2.76248       -0.01580
P          1.94358       -0.06176       -0.03314
P         -1.83726       -0.06725        0.05206
C          1.44734        1.55603        0.67421
C          0.44461        1.74363        1.71029
C          0.33969        3.17129        1.95566
C          1.33100        3.85095        1.13876
C          2.04422        2.84706        0.36682
C         -1.40514        1.55621       -0.68449
C         -1.96137        2.85224       -0.32583
C         -1.29488        3.86809       -1.12285
C         -0.32623        3.19861       -1.97215
C         -0.41594        1.76998       -1.72480
C          3.38414       -0.67555        0.96117
C          4.54404        0.12056        0.33983
C          2.86533        0.18021       -1.63149
C          4.33416        0.37514       -1.18083
C         -3.08468       -0.86377       -1.05968
C         -4.35904       -0.07476       -0.71715
C         -3.00355        0.23287        1.46948
C         -4.37155        0.40901        0.76648
H         -0.15221        0.95776        2.17394
H         -0.33633        3.64750        2.66992
H          1.52546        4.92601        1.12714
H          2.85307        3.02628       -0.34466
H         -2.74178        3.02899        0.41706
H          0.16364        0.99056       -2.21744
Cl         1.69201       -3.01222       -0.04116
Cl        -1.51797       -3.04401        0.41172
Pd         0.05446       -1.46095        0.08370
H          3.49687       -1.74425        0.74633
C          3.22654       -0.45158        2.46102
H          2.47042        1.08980       -2.09930
C          2.71508       -1.01226       -2.57725
H          5.50238       -0.38839        0.52692
H          4.61970        1.08263        0.86733
H          4.68965        1.37984       -1.45365
H          4.97011       -0.31448       -1.75310
H         -1.48838        4.94264       -1.08897
H          0.32811        3.68104       -2.70221
H          4.19212       -0.63317        2.95320
H          3.49097       -0.95013       -3.35323
H         -3.18923       -1.90825       -0.74477
C         -2.66175       -0.79299       -2.52074
H         -2.68104        1.15865        1.96114
C         -3.02401       -0.91271        2.47836
H         -5.25487       -0.67359       -0.94253
H         -4.41490        0.79373       -1.38949
H         -4.69818        1.45809        0.82106
H         -5.13089       -0.15215        1.32920
H         -2.53408        0.26023       -2.80353
H         -3.24140       -1.84556        1.94187
C          2.15427       -1.32577        3.08564
H          1.18306       -1.12490        2.63728
H          2.36597       -2.38518        2.92949
H          2.06043       -1.16041        4.16131
C          1.35290       -1.12667       -3.24035
H          0.56004       -1.22825       -2.50134
H          1.12958       -0.24564       -3.84482
H          1.29143       -1.99640       -3.89853
C         -3.64449       -1.47703       -3.45876
H         -3.76627       -2.53044       -3.19969
H         -4.63213       -1.01574       -3.40431
H         -3.31759       -1.42989       -4.50002
C         -1.74289       -1.05530        3.27979
H         -1.80631       -1.86190        4.01378
H         -0.90127       -1.28083        2.62782
H         -1.50611       -0.13690        3.82013
H          3.00645        0.60902        2.63973
H          2.94277       -1.92836       -2.01657
H         -1.66633       -1.24352       -2.62674
H         -3.87164       -0.76947        3.16310
