75
-122.81298510
P          1.82582       -0.56869        0.01696
C          3.13970       -1.23802       -1.01588
C          2.89204       -1.66391       -2.30060
C          3.91918       -2.19346       -3.05969
C          5.18681       -2.30179       -2.52340
C          5.42851       -1.88650       -1.22912
C          4.39885       -1.35656       -0.47247
H          4.56802       -1.04370        0.54618
H          6.41599       -1.97690       -0.80727
H          5.98813       -2.71346       -3.11509
H          3.72962       -2.51878       -4.06940
H          1.89911       -1.57459       -2.71015
C          1.70839       -1.63382        1.45996
C          1.82421       -2.99452        1.28996
C          1.82247       -3.82772        2.39433
C          1.70958       -3.29031        3.66133
C          1.59012       -1.92466        3.82654
C          1.58778       -1.09542        2.72037
H          1.48102       -0.02915        2.83196
H          1.49164       -1.50525        4.81423
H          1.70696       -3.93846        4.52241
H          1.91249       -4.89368        2.26501
H          1.93045       -3.39706        0.29488
C          2.20987        1.11581        0.52818
C          3.39294        1.75263        0.23451
C          3.57802        3.08769        0.56604
C          2.52775        3.77969        1.16769
C          1.33118        3.15886        1.44944
C          1.16994        1.79842        1.14236
O         -0.04060        1.13408        1.40383
C         -1.20795        1.83394        1.05246
C         -1.34450        3.20295        1.33244
C         -2.48749        3.86331        0.94005
C         -3.50088        3.20489        0.24460
C         -3.35047        1.85331       -0.03275
C         -2.22507        1.17585        0.37575
P         -1.86638       -0.54276       -0.03278
C         -1.69122       -1.52408        1.46415
C         -1.74405       -0.93875        2.70845
C         -1.70528       -1.72773        3.84295
C         -1.61689       -3.10041        3.72278
C         -1.56201       -3.68426        2.47270
C         -1.60177       -2.89164        1.33954
H         -1.57862       -3.33351        0.35571
H         -1.48922       -4.75522        2.37860
H         -1.58337       -3.71673        4.60629
H         -1.74129       -1.27094        4.81823
H         -1.81060        0.13361        2.78707
C         -3.21242       -1.31602       -0.94405
C         -4.49393       -1.21238       -0.45238
C         -5.53697       -1.83749       -1.11165
C         -5.28624       -2.57496       -2.25160
C         -3.99585       -2.69628       -2.72741
C         -2.95546       -2.07059       -2.06530
H         -1.94223       -2.16174       -2.42281
H         -3.79835       -3.27669       -3.61362
H         -6.09807       -3.06116       -2.76754
H         -6.54212       -1.75236       -0.73258
H         -4.67076       -0.65833        0.45613
Pd         0.00735        0.05980       -1.36372
Cl        -1.54659        0.37100       -2.96009
Cl         1.58707        1.11899       -2.57225
H         -4.10777        1.33785       -0.59596
C         -4.72996        3.92969       -0.17518
H         -4.53258        4.99355       -0.31272
H         -5.51551        3.82653        0.57443
H         -5.11152        3.53944       -1.11963
H         -2.58865        4.91062        1.16368
S         -0.02657        4.03951        2.17584
H          2.64339        4.82295        1.40304
C          4.84569        3.78386        0.22043
H          4.16975        1.21900       -0.28373
H          5.05543        4.59170        0.92266
H          5.69133        3.09530        0.24466
H          4.78946        4.21292       -0.78074
