105
-153.06756619
Cl         0.01025        1.83337        3.08862
Pd        -0.51845        1.23883        0.97906
P         -1.14620        0.49558       -1.15815
N         -0.78466       -1.03027       -1.95846
C          0.16409       -1.99779       -1.62648
C          0.32659       -2.48141       -0.30304
C          1.30584       -3.46261       -0.04316
C          1.45095       -3.99513        1.36288
C          2.29393       -5.27450        1.48011
C          3.55375       -5.18159        0.61475
C          3.18064       -4.98313       -0.86167
C          2.10175       -3.95267       -1.08245
C          1.88943       -3.49647       -2.37717
C          0.93756       -2.54899       -2.64729
H          0.79493       -2.19606       -3.65375
H          2.49379       -3.89345       -3.17521
H          4.06696       -4.69696       -1.44248
H          4.16514       -4.33563        0.95332
H          2.55600       -5.47553        2.52849
H          1.89526       -3.20863        1.98352
C         -0.65772       -2.13807        0.75130
C         -0.21764       -1.56012        1.97421
C         -1.13646       -1.43612        3.02093
C         -2.43844       -1.83612        2.86926
C         -2.89050       -2.39086        1.67818
C         -4.32974       -2.84339        1.60944
C         -4.80744       -3.23249        0.20102
C         -3.73037       -4.03006       -0.53859
C         -2.44148       -3.20583       -0.66937
C         -1.99872       -2.54736        0.61474
H         -1.62829       -3.83894       -1.04570
H         -4.09145       -4.35337       -1.52521
H         -5.04079       -2.32640       -0.37150
H         -4.96788       -2.05173        2.02174
H         -3.13151       -1.72362        3.68584
H         -0.81282       -0.98788        3.94389
N          1.07739       -1.04578        2.13871
P          1.59468        0.18658        0.98883
C          2.62067       -0.35834       -0.36523
C          2.40969        0.18603       -1.60705
C          3.23822       -0.16322       -2.65749
C          4.29288       -1.04490       -2.45977
C          4.49733       -1.57070       -1.19041
C          3.66611       -1.22060       -0.14139
H          3.82437       -1.61511        0.84971
H          5.30880       -2.25954       -1.02936
C          5.15921       -1.45674       -3.59824
H          3.06560        0.24365       -3.63907
H          1.59119        0.87088       -1.74786
C          2.50340        1.52509        1.76850
C          3.25389        1.29230        2.89566
C          3.95597        2.33231        3.47762
C          3.90806        3.60924        2.93410
C          3.15995        3.81790        1.78318
C          2.45930        2.77709        1.20132
H          1.87488        2.93628        0.30814
H          3.12808        4.80108        1.34569
C          4.67917        4.72473        3.54930
H          4.54667        2.15752        4.36059
H          3.29446        0.29929        3.31306
H          1.24638       -0.62005        3.04087
H         -1.05858       -0.93454       -2.92810
C         -0.59745        1.86114       -2.19318
C         -0.77958        3.15488       -1.76646
C         -0.33364        4.20967       -2.53934
C          0.29198        3.97686       -3.75620
C          0.46701        2.66499       -4.17485
C          0.01785        1.61288       -3.39812
H          0.16680        0.59633       -3.72110
H          0.96272        2.47229       -5.11100
C          0.80293        5.11011       -4.57606
H         -0.46806        5.22256       -2.19999
H         -1.27750        3.33320       -0.82799
C         -2.94032        0.56630       -1.11287
C         -3.60727        0.92235       -2.26101
C         -4.98992        0.97234       -2.26718
C         -5.71270        0.66274       -1.12314
C         -5.02040        0.31379        0.02771
C         -3.63936        0.25270        0.02680
H         -3.09951       -0.02080        0.91872
H         -5.57050        0.09531        0.92684
C         -7.19935        0.74384       -1.11551
H         -5.51592        1.25793       -3.16207
H         -3.04300        1.16364       -3.14824
Cl        -2.30715        2.60692        1.01772
H          2.84535       -5.93563       -1.28916
H          1.69531       -6.13531        1.15668
H          4.18430       -6.07257        0.74475
H          0.45032       -4.16702        1.77919
H         -3.51703       -4.95308        0.01498
H         -2.58295       -2.42558       -1.42594
H         -4.45404       -3.69719        2.28633
H         -5.74810       -3.79912        0.24906
H          6.16825       -1.69529       -3.25913
H          4.75290       -2.33983       -4.09332
H          5.23871       -0.66127       -4.34050
H          4.77630        4.58838        4.62726
H          5.68250        4.78243        3.12510
H          4.18641        5.68330        3.38090
H          0.19539        6.00483       -4.43312
H          1.83036        5.35359       -4.30202
H          0.78673        4.86590       -5.63916
H         -7.60895        0.57701       -2.11273
H         -7.63007       -0.00673       -0.45115
H         -7.53122        1.72555       -0.77497
