105
-153.06010110
Cl         0.26195        2.66271        2.65128
Pd        -0.36450        1.44206        0.84903
P         -1.09569        0.46340       -1.17206
N         -0.59486       -1.00202       -2.01215
C          0.24948       -2.03196       -1.60800
C          0.31836       -2.47941       -0.26520
C          1.24377       -3.48725        0.07959
C          1.29875       -3.96772        1.51051
C          2.09365       -5.26581        1.72174
C          3.39358       -5.25085        0.91252
C          3.09365       -5.10748       -0.58679
C          2.06819       -4.04738       -0.90037
C          1.93564       -3.63435       -2.22025
C          1.04342       -2.65491       -2.56991
H          0.97168       -2.32667       -3.59219
H          2.55995       -4.08572       -2.97274
H          4.01528       -4.88274       -1.13898
H          4.01635       -4.40942        1.24163
H          2.30164       -5.42769        2.78885
H          1.73453       -3.16995        2.12295
C         -0.72433       -2.08453        0.71221
C         -0.36147       -1.46403        1.93711
C         -1.33992       -1.31644        2.92383
C         -2.62172       -1.75743        2.72189
C         -2.99602       -2.36601        1.53050
C         -4.41279       -2.87199        1.40401
C         -4.81666       -3.25704       -0.02777
C         -3.69949       -4.04920       -0.71121
C         -2.40499       -3.22480       -0.77279
C         -2.04756       -2.52697        0.51830
H         -1.56830       -3.86783       -1.07307
H         -4.00779       -4.36951       -1.71653
H         -5.02087       -2.34909       -0.60805
H         -5.09779       -2.11269        1.80145
H         -3.35820       -1.63805        3.49848
H         -1.07337       -0.83975        3.85088
N          0.93186       -0.98479        2.19226
P          1.63108        0.22849        1.12357
C          2.55559       -0.30585       -0.30343
C          2.31260        0.30232       -1.51049
C          3.08027       -0.03179       -2.61090
C          4.10581       -0.96133       -2.49949
C          4.34437       -1.55104       -1.26457
C          3.57476       -1.21639       -0.16470
H          3.76230       -1.65892        0.80089
H          5.13296       -2.27776       -1.17012
C          4.90250       -1.35213       -3.69481
H          2.88457        0.42584       -3.56536
H          1.51863        1.02606       -1.58727
C          2.69384        1.38344        1.99389
C          3.18665        1.09240        3.24376
C          4.01420        1.99749        3.88324
C          4.35236        3.19892        3.27502
C          3.86256        3.46403        2.00339
C          3.03576        2.55722        1.36467
H          2.65082        2.76152        0.37746
H          4.13083        4.38600        1.51652
C          5.25826        4.16551        3.95508
H          4.40396        1.77484        4.86186
H          2.93674        0.15528        3.71265
H          1.03554       -0.56128        3.10510
H         -0.84706       -0.93046       -2.99028
C         -0.74805        1.85909       -2.25919
C         -1.18472        3.11530       -1.91231
C         -0.92271        4.19317       -2.73608
C         -0.22391        4.02038       -3.92274
C          0.21515        2.74676       -4.25721
C         -0.05235        1.67103       -3.43070
H          0.29243        0.68534       -3.69335
H          0.77001        2.60303       -5.16864
C          0.08651        5.18506       -4.79724
H         -1.25661        5.17843       -2.45880
H         -1.72101        3.24777       -0.98734
C         -2.88846        0.38587       -1.07968
C         -3.58501        0.44300       -2.26386
C         -4.96812        0.39719       -2.25462
C         -5.66316        0.29600       -1.05746
C         -4.94305        0.24999        0.12764
C         -3.56102        0.27847        0.11285
H         -2.99978        0.22662        1.03216
H         -5.47171        0.19391        1.06370
C         -7.15172        0.27411       -1.03975
H         -5.51629        0.44685       -3.17986
H         -3.04328        0.53033       -3.19297
Cl        -2.31250        2.58017        1.06835
H          2.73865       -6.06510       -0.98599
H          1.48240       -6.12154        1.40861
H          3.98820       -6.15399        1.11029
H          0.27293       -4.09317        1.87933
H         -3.51522       -4.97429       -0.15068
H         -2.49097       -2.46729       -1.56037
H         -4.52891       -3.74044        2.06342
H         -5.75742       -3.82558       -0.03084
H          5.06018       -0.49980       -4.35725
H          5.88300       -1.73499       -3.40832
H          4.39043       -2.13013       -4.26283
H          5.15866        4.10227        5.03956
H          6.29991        3.96583        3.70007
H          5.03013        5.19121        3.66195
H          1.03443        5.64249       -4.51063
H          0.16059        4.88381       -5.84311
H         -0.69017        5.94790       -4.72720
H         -7.52585       -0.32512       -0.20835
H         -7.55226        1.28326       -0.93475
H         -7.55087       -0.15289       -1.96085
