105
-153.07061747
Cl         0.49300        2.01274        3.04035
Pd        -0.28357        1.44170        1.00159
P         -1.24504        0.75373       -1.00035
N         -0.21515       -0.35142       -1.89410
C          0.31369       -1.61123       -1.64996
C          0.22226       -2.28796       -0.40876
C          0.90189       -3.51032       -0.23157
C          0.80368       -4.20258        1.10823
C          1.31240       -5.65285        1.11863
C          2.61518       -5.78591        0.32457
C          2.40576       -5.35466       -1.13471
C          1.64355       -4.06185       -1.27801
C          1.68063       -3.40574       -2.50096
C          1.03302       -2.21167       -2.68322
H          1.10113       -1.70287       -3.62911
H          2.24621       -3.83927       -3.30838
H          3.37293       -5.25445       -1.64387
H          3.38575       -5.15465        0.78457
H          1.44691       -6.01201        2.14870
H          1.36311       -3.61058        1.84211
C         -0.69986       -1.84735        0.66525
C         -0.18311       -1.27184        1.86006
C         -1.05241       -1.09232        2.94101
C         -2.37223       -1.45277        2.85301
C         -2.88388       -2.04130        1.70273
C         -4.32155       -2.48799        1.69291
C         -4.55819       -3.67958        0.75447
C         -4.00775       -3.37463       -0.64198
C         -2.50701       -3.03384       -0.60434
C         -2.04572       -2.25331        0.60681
H         -1.92536       -3.96232       -0.65020
H         -4.56259       -2.53029       -1.06453
H         -5.62554       -3.93885        0.70880
H         -4.95133       -1.64386        1.39004
H         -3.02813       -1.29033        3.69136
H         -0.67571       -0.63208        3.83744
N          1.14574       -0.84035        1.97118
P          1.76550        0.22923        0.70659
C          2.93207       -0.64801       -0.33551
C          3.25440       -0.18316       -1.58800
C          4.19706       -0.85580       -2.34421
C          4.83165       -1.98541       -1.84265
C          4.51081       -2.42106       -0.56473
C          3.56449       -1.74945        0.18794
H          3.30689       -2.08081        1.18119
H          5.00282       -3.29157       -0.16599
C          5.83447       -2.72810       -2.65502
H          4.44380       -0.50628       -3.33207
H          2.76920        0.69976       -1.96954
C          2.74238        1.57517        1.38516
C          3.55093        1.35868        2.47435
C          4.30931        2.39864        2.98101
C          4.26980        3.65517        2.39117
C          3.44855        3.85059        1.28875
C          2.69166        2.81002        0.78213
H          2.05639        2.95762       -0.07723
H          3.40199        4.82421        0.83157
C          5.06043        4.78322        2.95668
H          4.93534        2.24046        3.84248
H          3.58709        0.37946        2.92404
H          1.38209       -0.38983        2.84608
H         -0.21795       -0.03458       -2.85588
C         -1.06205        2.34922       -1.80424
C         -2.11929        3.22342       -1.88919
C         -1.93591        4.46677       -2.46603
C         -0.68993        4.84653       -2.94783
C          0.36488        3.94849       -2.85386
C          0.17804        2.70460       -2.27887
H          0.99479        2.00702       -2.19359
H          1.33301        4.22949       -3.23194
C         -0.49733        6.17764       -3.58715
H         -2.76141        5.15384       -2.54064
H         -3.08017        2.93397       -1.49573
C         -2.95402        0.27061       -1.26848
C         -3.28597       -0.26892       -2.48909
C         -4.60402       -0.58339       -2.77032
C         -5.59912       -0.36008       -1.82814
C         -5.24809        0.20428       -0.60977
C         -3.93130        0.51915       -0.33499
H         -3.66307        0.98844        0.59536
H         -6.01512        0.40504        0.11863
C         -7.02003       -0.68644       -2.13016
H         -4.86685       -1.00552       -3.72516
H         -2.51238       -0.43688       -3.22115
Cl        -2.27247        2.35768        1.50902
H          1.86731       -6.13961       -1.67903
H          0.55125       -6.30806        0.67661
H          3.00341       -6.81289        0.37897
H         -0.23951       -4.17194        1.44679
H         -4.19729       -4.21517       -1.32422
H         -2.22464       -2.47566       -1.50495
H         -4.63316       -2.73677        2.71535
H         -4.05391       -4.56643        1.15855
H          5.99186       -2.25429       -3.62485
H          6.79691       -2.76769       -2.14292
H          5.50561       -3.75277       -2.83427
H          4.48377        5.31858        3.71213
H          5.97846        4.42522        3.42477
H          5.34135        5.49582        2.17992
H          0.52071        6.54114       -3.44033
H         -0.68378        6.12249       -4.66053
H         -1.17689        6.91923       -3.16492
H         -7.55450       -0.98602       -1.22747
H         -7.53387        0.17670       -2.55538
H         -7.09256       -1.50762       -2.84468
