111
-148.55318072
P         -2.50659        2.12079        0.90729
P          0.07877        0.34470        0.50353
C         -1.45266        1.73051        2.33093
C         -0.29879        1.00315        2.13726
C         -3.22821        3.82000        1.05878
C         -2.51159        4.82516        0.18400
C         -1.79398        2.15078        3.60085
H         -2.70856        2.69941        3.75406
C         -0.96926        1.85005        4.67126
H         -1.23539        2.17800        5.66287
C          0.19232        1.12900        4.47148
H          0.83303        0.89327        5.30520
C          0.52654        0.69967        3.19968
H          1.41959        0.11926        3.02722
Pd        -1.32895        1.44605       -0.96814
Cl        -2.71992        2.69022       -2.20610
Cl        -0.03620        0.68160       -2.64239
C         -4.70929        3.58875        0.70892
C         -4.05791        1.11372        0.82593
H         -2.93786        5.82500        0.29353
H         -1.44892        4.87970        0.43169
H         -2.58801        4.55092       -0.86823
H         -4.84372        3.73851       -0.37129
H         -5.34230        4.34698        1.19467
H         -4.12557        0.74239       -0.20548
C         -5.16449        2.15154        1.09377
C         -4.01438       -0.03580        1.80898
H         -3.13209        4.10170        2.11493
H         -5.42428        2.12389        2.16088
H         -6.08592        1.87548        0.55904
H         -3.17961       -0.70655        1.59384
H         -3.88480        0.33107        2.82891
H         -4.93596       -0.62184        1.78054
C         -1.12867       -4.04259        0.22343
C         -1.14854       -3.39245        1.48662
C         -0.76555       -2.06268        1.54528
C         -0.46062       -1.36302        0.40704
C         -0.57714       -1.95105       -0.82433
C         -0.94236       -3.27815       -0.95840
O         -1.20800       -5.45695        0.14860
C         -1.57662       -4.07591        2.79629
H         -0.69091       -1.55962        2.49354
H         -0.36452       -1.35269       -1.69306
C         -1.12329       -3.82904       -2.38233
C          4.42792        0.78489       -0.76867
C          3.79433       -0.48165       -0.83967
C          2.47168       -0.57322       -0.44328
C          1.80502        0.50994        0.06603
C          2.44070        1.71268        0.22792
C          3.76722        1.87239       -0.14051
O          5.70593        0.97226       -1.35927
C          4.49561       -1.73756       -1.38031
H          1.93423       -1.49905       -0.54583
H          1.87784        2.53337        0.63859
C          4.45435        3.22362        0.11215
C         -0.33757       -4.32046        3.67320
C         -2.56123       -3.15977        3.55638
C         -2.30394       -5.40927        2.55059
C         -1.85519       -5.18189       -2.39912
C         -1.97778       -2.84156       -3.20832
C          0.25480       -3.98020       -3.04822
C          0.06301       -6.08100        0.22589
H         -0.61522       -4.78650        4.61828
H          0.37489       -4.97411        3.17352
H          0.17169       -3.38379        3.89800
H         -3.42464       -2.92492        2.93477
H         -2.92321       -3.64597        4.46191
H         -2.09562       -2.22231        3.85596
H         -2.68150       -5.82850        3.48293
H         -3.14675       -5.26829        1.87480
H         -1.63879       -6.14501        2.10479
H         -1.26298       -5.95651       -1.91783
H         -2.80530       -5.11125       -1.87078
H         -2.05621       -5.50720       -3.41956
H         -2.93059       -2.65190       -2.71499
H         -1.47448       -1.88611       -3.34605
H         -2.18619       -3.24325       -4.19951
H          0.88439       -4.67587       -2.49660
H          0.15616       -4.35197       -4.06769
H          0.77365       -3.02305       -3.08959
H          0.70127       -5.73167       -0.58425
H          0.53977       -5.84199        1.17511
H         -0.06135       -7.16119        0.14709
C          5.65939        1.38306       -2.72002
C          3.91368       -3.01303       -0.72727
C          4.27744       -1.82480       -2.89855
C          6.00055       -1.71465       -1.05834
C          3.86305        3.90932        1.36502
C          5.96103        3.04233        0.37184
C          4.23173        4.14075       -1.10000
H          3.93104       -2.93494        0.35947
H          2.88725       -3.19635       -1.04166
H          4.49442       -3.89110       -1.00890
H          4.74653       -2.71804       -3.31024
H          3.21386       -1.86278       -3.13269
H          4.69607       -0.96015       -3.40761
H          6.48616       -2.63230       -1.38940
H          6.49914       -0.88309       -1.54993
H          6.16170       -1.61336        0.01439
H          2.83253        4.22286        1.20539
H          3.88876        3.23766        2.22276
H          4.43226        4.80237        1.62207
H          6.46864        2.63686       -0.49967
H          6.43404        3.99345        0.61501
H          6.12737        2.35825        1.20330
H          4.65111        3.70744       -2.00473
H          4.69795        5.11338       -0.94496
H          3.16748        4.29961       -1.27229
H          4.62502        1.47158       -3.05484
H          6.16095        2.34438       -2.82976
H          6.18162        0.65462       -3.34007
