64
-97.20793042
Cl        -1.66398       -1.52124       -2.43605
Cl         1.59217       -1.38233       -2.89286
P          1.96141       -0.66905        0.21672
C          2.18576       -2.33216        0.99877
C          3.73835       -0.24543       -0.12055
P         -1.29363       -0.13022        0.42088
C          1.29487        0.56701        1.38745
C         -0.12739        0.83667        1.45365
C         -0.32404        1.98721        2.32415
C          0.97622        2.41880        2.80637
C          1.97852        1.55229        2.21140
H         -1.28005        2.45518        2.56420
H          1.16752        3.25624        3.48095
Pd         0.15191       -1.01058       -1.22557
H          3.05833        1.62014        2.35928
C         -4.86976        2.48329       -0.65180
C         -4.48367        2.33348        0.66550
C         -3.40669        1.52399        0.98057
C         -2.71841        0.87631       -0.02039
C         -3.11970        1.00374       -1.33082
C         -4.19197        1.81434       -1.65136
H         -5.70780        3.11451       -0.89887
H         -5.02045        2.84453        1.44785
H         -3.10950        1.38101        2.00692
H         -2.60958        0.44343       -2.09549
H         -4.50284        1.91589       -2.67825
C         -2.75492       -3.82462        2.62203
C         -2.36356       -2.70809        3.33543
C         -1.92410       -1.58073        2.66451
C         -1.87768       -1.58195        1.28951
C         -2.27147       -2.68868        0.57516
C         -2.71129       -3.81704        1.24142
H         -3.09719       -4.70333        3.14402
H         -2.39924       -2.71425        4.41246
H         -1.61074       -0.70155        3.20492
H         -2.23215       -2.65795       -0.50161
H         -3.01922       -4.68647        0.68414
C          4.07825       -0.29783       -1.59329
H          3.90135        0.76669        0.27237
C          4.50381       -1.29204        0.71282
H          4.71632       -0.89095        1.71469
C          3.69396       -2.60906        0.84688
H          5.48500       -1.48424        0.25470
C          1.71604       -2.30204        2.43690
H          1.59005       -3.04540        0.41265
H          4.04881       -3.19734        1.70537
H          3.87244       -3.23796       -0.03744
H          2.28107       -1.56376        3.00947
H          0.66082       -2.03043        2.50407
H          1.84626       -3.27186        2.92292
H          3.88878       -1.29530       -1.99294
H          3.47756        0.40591       -2.17181
H          5.13060       -0.06533       -1.77048
Fe         0.87081        2.43480        0.74627
C          1.47279        4.21852       -0.12122
C          0.04963        3.99170       -0.30682
C         -0.11727        2.74155       -1.02489
C          1.20007        2.18517       -1.26314
C          2.18311        3.09652       -0.70964
H          1.92797        5.08351        0.36605
H         -0.75476        4.65839        0.01255
H         -1.06631        2.30100       -1.33102
H          1.41229        1.27236       -1.82340
H          3.26782        2.97908       -0.75883
