75
-122.81789849
P          1.87771       -0.55208       -0.02047
C          3.22363       -1.26705       -0.97758
C          4.48017       -1.29485       -0.41632
C          5.53334       -1.85909       -1.11348
C          5.31732       -2.40068       -2.36496
C          4.05201       -2.38426       -2.91731
C          3.00147       -1.81940       -2.21788
H          2.00936       -1.80152       -2.63887
H          3.88233       -2.80931       -3.89291
H          6.13686       -2.83973       -2.91018
H          6.51909       -1.87776       -0.67851
H          4.62912       -0.88376        0.57007
C          1.71308       -1.56244        1.45507
C          1.80710       -0.99826        2.70645
C          1.76656       -1.80465        3.82878
C          1.63342       -3.17189        3.68816
C          1.53629       -3.73337        2.43028
C          1.57894       -2.92404        1.30909
H          1.52133       -3.34780        0.31868
H          1.42800       -4.79987        2.32086
H          1.59792       -3.80141        4.56223
H          1.83563       -1.36550        4.81036
H          1.90805        0.07058        2.79945
C          2.23031        1.15846        0.41243
C          3.38316        1.81677        0.05350
C          3.54636        3.16398        0.34416
C          2.50513        3.84280        0.97575
C          1.33816        3.19906        1.32314
C          1.19684        1.82921        1.04914
O          0.01573        1.13870        1.36732
C         -1.18367        1.80913        1.07496
C         -1.34192        3.17628        1.35274
C         -2.52744        3.79996        1.03284
C         -3.57176        3.10289        0.42683
C         -3.39261        1.75838        0.13317
C         -2.22016        1.11996        0.46331
P         -1.85259       -0.58494        0.01804
C         -1.72075       -1.59887        1.49760
C         -1.88484       -2.96048        1.38233
C         -1.86933       -3.75365        2.51567
C         -1.69415       -3.17571        3.75743
C         -1.52538       -1.80982        3.86794
C         -1.53634       -1.02120        2.73265
H         -1.38795        0.04347        2.80156
H         -1.37720       -1.35902        4.83540
H         -1.68089       -3.79257        4.64110
H         -1.99724       -4.82005        2.42866
H         -2.03897       -3.39488        0.40714
C         -3.18533       -1.28146       -0.97231
C         -2.95845       -1.76436       -2.24057
C         -4.00105       -2.31251       -2.96463
C         -5.26357       -2.38118       -2.41008
C         -5.48480       -1.90767       -1.13225
C         -4.43958       -1.35978       -0.41052
H         -4.59299       -1.00053        0.59528
H         -6.46843       -1.96642       -0.69605
H         -6.07690       -2.80724       -2.97458
H         -3.82744       -2.68360       -3.96135
H         -1.96938       -1.70636       -2.66463
Pd        -0.00643       -0.08978       -1.37565
Cl        -1.55600        0.97737       -2.63449
Cl         1.55301        0.83014       -2.73466
H         -4.16608        1.21717       -0.38230
C         -4.82748        3.79972        0.04117
H         -5.68270        3.12457        0.09233
H         -4.75961        4.18054       -0.97863
H         -5.03000        4.64243        0.70339
H         -2.63968        4.84871        1.24431
S         -0.00085        4.06380        2.10032
H          2.60444        4.89328        1.18509
C          4.78069        3.88237       -0.07003
H          4.15296        1.28868       -0.48079
H          4.68171        4.26470       -1.08671
H          4.98549        4.72658        0.58959
H          5.64788        3.22129       -0.04175
