171
-217.83377486
P         -1.48617        0.23295       -0.37787
P          1.69083       -0.73135        0.40358
C         -0.43968        1.02442       -1.61937
C          1.03581       -1.74543       -0.94462
C          0.43370        0.22716       -2.34877
C          1.27561        0.82405       -3.30627
C          1.18215        2.18876       -3.52508
C          0.30264        2.96482       -2.79971
C         -0.50201        2.37865       -1.84261
C          1.04364       -3.09774       -0.69531
C          0.49906       -3.97850       -1.60969
C         -0.07151       -3.49150       -2.76599
C         -0.10307       -2.13279       -3.03050
C          0.47117       -1.23739       -2.10891
Cl         0.68415       -1.17223        3.38520
Cl        -2.34493       -1.51994        2.31350
C         -0.76417       -1.65650       -4.27659
C          2.24368        0.00223       -4.08434
H          0.24885        4.02684       -2.97494
H         -1.16640        2.98665       -1.25431
H          1.46871       -3.46105        0.22887
H          0.51080       -5.03813       -1.41336
H          1.80935        2.64455       -4.27222
H         -0.51147       -4.17071       -3.47677
C         -4.37257       -2.50875       -2.54198
C         -3.77674       -2.96706       -1.37283
C         -2.90109       -2.11595       -0.71477
C         -2.62297       -0.87089       -1.21682
C         -3.20963       -0.43811       -2.38071
C         -4.10304       -1.25125       -3.06863
H         -5.07920       -3.13615       -3.05132
H         -2.45275       -2.41725        0.21453
H         -2.95336        0.53733       -2.75599
C         -4.13421        3.35226        1.63725
C         -3.42687        2.47187        2.44653
C         -2.60755        1.53792        1.82884
C         -2.50918        1.47003        0.45935
C         -3.25028        2.32467       -0.32014
C         -4.06024        3.29722        0.25088
H         -4.76743        4.08682        2.09599
H         -2.07160        0.83315        2.43615
H         -3.20387        2.23279       -1.39160
C          5.63590       -2.59898        1.62134
C          4.74884       -2.23742        2.62758
C          3.53262       -1.68458        2.25059
C          3.22289       -1.51424        0.92561
C          4.10797       -1.88689       -0.05690
C          5.34232       -2.43229        0.27390
H          6.58385       -3.02445        1.89533
H          2.80535       -1.39530        2.98572
H          3.82336       -1.74930       -1.08645
C          2.84568        3.61475       -0.20639
C          3.62741        2.61032       -0.76220
C          3.21294        1.29788       -0.58372
C          2.07460        1.00767        0.12755
C          1.32258        2.01509        0.68748
C          1.69001        3.34517        0.51635
H          3.15018        4.63817       -0.31821
H          3.80323        0.49040       -0.98043
H          0.44562        1.75956        1.25391
Pd        -0.39988       -0.79905        1.45711
C         -4.69933       -4.17111        0.62067
C         -4.06705       -4.34928       -0.77226
C         -2.74786       -5.13368       -0.64473
C         -5.03500       -5.16244       -1.65245
H         -4.93263       -5.13604        1.07013
H         -4.02698       -3.64279        1.29564
H         -5.62293       -3.59670        0.55327
H         -2.27672       -5.25295       -1.61996
H         -2.04248       -4.61989        0.00735
H         -2.92200       -6.12633       -0.23015
H         -5.99762       -4.66005       -1.74545
H         -4.62421       -5.31232       -2.65080
H         -5.21770       -6.14582       -1.21935
C         -4.73480       -1.82665       -5.44296
C         -4.83514       -0.76654       -4.32891
C         -4.23307        0.54863       -4.86333
C         -6.31383       -0.52560       -3.97774
H         -5.22837       -1.48155       -6.35139
H         -3.69418       -2.03588       -5.68764
H         -5.20650       -2.76329       -5.14958
H         -4.73110        0.85630       -5.78269
H         -4.34933        1.35835       -4.14368
H         -3.17216        0.43230       -5.08366
H         -6.78746       -1.44255       -3.62817
H         -6.40526        0.21955       -3.18756
H         -6.86923       -0.16919       -4.84508
C         -4.15821        1.08849        4.39930
C         -3.56885        2.44752        3.97628
C         -4.50104        3.56550        4.48067
C         -2.18844        2.63369        4.63281
H         -4.29432        1.04032        5.47941
H         -5.12724        0.92591        3.92813
H         -3.50475        0.26671        4.10866
H         -4.12097        4.54809        4.20145
H         -5.50549        3.45340        4.07298
H         -4.58268        3.53956        5.56725
H         -2.26745        2.59809        5.71915
H         -1.49273        1.85348        4.32637
H         -1.75928        3.59742        4.36154
C         -3.84298        5.00885       -1.56705
C         -4.83739        4.25328       -0.66460
C         -5.64515        5.28728        0.14277
C         -5.81279        3.43896       -1.53479
H         -3.11958        5.55958       -0.96587
H         -3.29101        4.32450       -2.21026
H         -4.36171        5.72109       -2.20841
H         -4.99098        5.89071        0.77194
H         -6.17998        5.96484       -0.52273
H         -6.38412        4.79934        0.77802
H         -6.51129        2.88138       -0.91118
H         -6.39013        4.09125       -2.18973
H         -5.28139        2.72360       -2.16109
C          6.39895       -1.64193        4.41908
C          5.12948       -2.45233        4.09933
C          5.39242       -3.94975        4.34314
C          4.00526       -1.99427        5.04952
H          7.24001       -1.96510        3.80678
H          6.23556       -0.58111        4.22994
H          6.68342       -1.75880        5.46466
H          5.64499       -4.13666        5.38673
H          4.50925       -4.53964        4.09857
H          6.21714       -4.31248        3.73083
H          3.08614       -2.55068        4.86717
H          4.28760       -2.15573        6.08969
H          3.79533       -0.93209        4.92604
C          7.67477       -2.05292       -0.56750
C          6.36810       -2.83580       -0.79433
C          5.85830       -2.52656       -2.21626
C          6.64122       -4.34702       -0.68957
H          8.10738       -2.27625        0.40695
H          8.41614       -2.30348       -1.32606
H          7.49337       -0.97939       -0.61501
H          5.65803       -1.46210       -2.33812
H          6.59973       -2.80993       -2.96315
H          4.94395       -3.07803       -2.43464
H          7.35510       -4.66819       -1.44788
H          7.05011       -4.60823        0.28583
H          5.72130       -4.91446       -0.82951
C          5.21317        4.40037       -1.63546
C          4.95336        2.88941       -1.48458
C          4.92165        2.26061       -2.88884
C          6.10373        2.26854       -0.67022
H          5.29347        4.88491       -0.66262
H          6.14594        4.58072       -2.16972
H          4.41183        4.88049       -2.19701
H          4.79006        1.18080       -2.83668
H          4.10267        2.67466       -3.47538
H          5.85065        2.45543       -3.42441
H          5.97921        1.19061       -0.57191
H          7.06553        2.45214       -1.14870
H          6.13795        2.69269        0.33306
C          0.53042        5.53440        0.05672
C          0.90553        4.50808        1.14281
C          1.78204        5.18301        2.21310
C         -0.39206        4.02236        1.80946
H          1.41489        5.95467       -0.41982
H         -0.08017        5.07203       -0.71737
H         -0.03999        6.35953        0.48293
H          2.06374        4.46781        2.98575
H          2.69721        5.58342        1.77827
H          1.25055        6.00551        2.69146
H         -0.94267        4.85632        2.24439
H         -1.04388        3.54182        1.08243
H         -0.17852        3.31233        2.60724
H         -1.76422       -2.08222       -4.36409
H          2.70730       -0.75715       -3.45252
H         -0.19585       -1.95364       -5.15913
H         -0.86623       -0.57086       -4.28912
H          3.04131        0.61669       -4.50357
H          1.74809       -0.50515       -4.91257
