45
-71.81635225
C          2.25081        1.48619        2.36034
P          1.50189        0.96207        0.78201
P         -1.02011        0.09150       -0.93937
C         -0.38986       -0.52905       -2.53531
Cl         1.22370       -1.56236        2.63418
H          2.79422        0.65656        2.80331
H         -0.86903       -0.00245       -3.35563
Cl        -1.08102       -2.76700        0.44709
C          0.44080        2.22548        0.04764
C         -0.64188        1.83973       -0.71309
C         -1.44564        2.78759       -1.31170
C         -1.15870        4.13167       -1.15012
C         -0.06878        4.51912       -0.39477
C          0.73515        3.56449        0.20330
H         -2.29216        2.46894       -1.89885
H         -1.78495        4.87507       -1.61523
H          0.15770        5.56554       -0.27259
H          1.59436        3.85593        0.78519
Pd         0.16310       -0.93121        0.76224
H         -0.59364       -1.59230       -2.62493
H          1.47383        1.80556        3.04894
H          0.68306       -0.37150       -2.59547
C         -5.45189       -0.66674       -0.24961
C         -4.66365       -0.14935        0.75909
C         -3.31755        0.07817        0.53331
C         -2.77108       -0.21381       -0.69561
C         -3.55268       -0.72950       -1.70439
C         -4.89884       -0.95688       -1.48123
H         -6.50018       -0.84622       -0.07477
H         -5.09406        0.07463        1.72126
H         -2.68759        0.48083        1.31124
H         -3.10992       -0.95498       -2.66083
H         -5.51413       -1.36221       -2.26762
C          4.53568       -0.53362       -2.24960
C          4.39545       -1.17752       -1.03552
C          3.48163       -0.70779       -0.10970
C          2.72426        0.40270       -0.40260
C          2.85146        1.04244       -1.61389
C          3.76401        0.57432       -2.54188
H          5.24600       -0.89959       -2.97288
H          4.99029       -2.04775       -0.81185
H          3.33086       -1.21343        0.83111
H          2.23456        1.89975       -1.82978
H          3.87012        1.07211       -3.49173
H          2.93987        2.30901        2.19281
