111
-148.55407494
P         -2.48363        2.06063       -0.62501
P         -0.01648        0.35842        0.41224
C         -1.91242        2.25551        1.08002
C         -0.83358        1.52192        1.52150
C         -2.67806        3.69977       -1.46072
C         -1.57922        3.92570       -2.47682
C         -2.55008        3.13001        1.93589
H         -3.39103        3.70339        1.58066
C         -2.10658        3.26062        3.24075
H         -2.60464        3.94121        3.91182
C         -1.02736        2.51965        3.68352
H         -0.68302        2.62021        4.69962
C         -0.38818        1.64723        2.82049
H          0.45442        1.05961        3.14985
Pd        -1.02896        0.60722       -1.66555
Cl        -2.36322        0.67957       -3.46299
Cl         0.64560       -0.66343       -2.45687
C         -4.09567        3.62181       -2.05736
C         -4.21477        1.41871       -0.76159
H         -1.69378        4.88772       -2.98178
H         -0.59289        3.90431       -2.00684
H         -1.59458        3.14757       -3.24219
H         -4.02087        3.27708       -3.09789
H         -4.54582        4.62474       -2.11004
H         -4.18638        0.64621       -1.54176
C         -5.00261        2.64596       -1.25542
C         -4.70508        0.83794        0.54684
H         -2.63618        4.45659       -0.66649
H         -5.42564        3.16849       -0.38647
H         -5.86714        2.32837       -1.85799
H         -4.06495        0.01768        0.87628
H         -4.70115        1.59269        1.33479
H         -5.72544        0.45782        0.45834
C         -1.25533       -3.93108        1.30057
C         -0.04845       -3.68665        0.59634
C          0.30503       -2.37230        0.33841
C         -0.43940       -1.33104        0.82615
C         -1.54914       -1.56117        1.59736
C         -1.96472       -2.85081        1.88515
O         -1.78083       -5.24787        1.38764
C          0.85520       -4.81262        0.07010
H          1.15456       -2.14173       -0.28057
H         -2.09456       -0.71099        1.96771
C         -3.18709       -3.06617        2.79145
C          4.42976        1.31516        0.16566
C          3.52150        1.87817       -0.76633
C          2.17631        1.57845       -0.63179
C          1.74047        0.68369        0.31017
C          2.62799        0.04878        1.14000
C          3.98598        0.31732        1.07084
O          5.77030        1.78138        0.21863
C          3.96724        2.80599       -1.90735
H          1.44467        2.04482       -1.26936
H          2.24070       -0.65594        1.85506
C          4.95068       -0.44151        1.99585
C          2.33656       -4.37548        0.10505
C          0.74919       -6.07678        0.94268
C          0.46842       -5.13230       -1.38185
C         -3.36335       -1.88042        3.76722
C         -4.45360       -3.18050        1.92942
C         -3.01540       -4.33416        3.64750
C         -2.61726       -5.60934        0.29546
H          2.99121       -5.20300       -0.16734
H          2.53859       -3.56475       -0.59298
H          2.61278       -4.04635        1.10593
H          0.97892       -5.84506        1.98217
H         -0.25018       -6.50199        0.91060
H          1.44425       -6.84516        0.60503
H          1.09450       -5.92645       -1.78760
H         -0.56906       -5.45088       -1.45237
H          0.58688       -4.25239       -2.01383
H         -3.64790       -0.96773        3.24578
H         -4.14812       -2.09091        4.49346
H         -2.44190       -1.68953        4.31671
H         -4.40007       -4.03589        1.26110
H         -5.34003       -3.29786        2.55227
H         -4.58709       -2.28971        1.31698
H         -2.96034       -5.22564        3.02715
H         -2.10016       -4.27913        4.23594
H         -3.85291       -4.46052        4.33311
H         -2.15189       -6.40972       -0.27903
H         -3.57146       -5.97470        0.67508
H         -2.78707       -4.74954       -0.35391
C          5.95839        2.89952        1.07692
C          5.38934        2.45652       -2.38219
C          3.03339        2.64630       -3.12964
C          3.91089        4.26519       -1.43166
C          6.33867       -0.59974        1.34785
C          5.07253        0.31288        3.32826
C          4.42699       -1.86688        2.27701
H          6.12168        2.61989       -1.59549
H          5.44724        1.41018       -2.68020
H          5.67965        3.06917       -3.23532
H          3.42191        3.19313       -3.98839
H          2.94255        1.59792       -3.41283
H          2.03555        3.03351       -2.92957
H          4.20714        4.94699       -2.22843
H          2.90104        4.52980       -1.11887
H          4.57358        4.42956       -0.58524
H          6.81990        0.36349        1.19880
H          6.99681       -1.20256        1.97312
H          6.25506       -1.08531        0.37613
H          5.74702       -0.20449        4.01005
H          5.45469        1.31977        3.17626
H          4.10049        0.39718        3.81369
H          5.15823       -2.44359        2.84299
H          4.23682       -2.39374        1.34299
H          3.50799       -1.85468        2.86081
H          5.00980        3.19996        1.52369
H          6.66457        2.64092        1.86573
H          6.37225        3.73175        0.50771
