59
-75.79930404
Cl         1.47462        0.82112        2.32793
P          1.56462        0.07281       -0.79474
P         -1.63887       -0.21922       -0.79331
C          0.56159        0.47614       -2.29340
H          0.26790        1.52670       -2.24050
H          1.19726        0.36014       -3.17653
C         -0.64587       -0.41818       -2.34016
H         -0.34009       -1.46535       -2.40879
H         -1.28930       -0.20790       -3.20006
C          2.48765       -1.50309       -1.10876
H          2.24433       -1.76028       -2.14831
C          2.99275        1.22439       -0.57051
H          3.13392        1.33339        0.51167
C         -2.71706       -1.67612       -0.41843
H         -2.63577       -1.84378        0.66268
C         -2.92893        1.10157       -0.96043
H         -2.93918        1.38508       -2.01975
C          3.97102       -1.09543       -1.00753
H          4.36808       -1.39675       -0.03108
H          4.56996       -1.65070       -1.74501
C          4.16420        0.43643       -1.18241
H          4.23287        0.67934       -2.25192
H          5.11855        0.76435       -0.74249
C         -4.12243       -1.16326       -0.77446
H         -4.33756       -1.41627       -1.82192
H         -4.88492       -1.68960       -0.17998
C         -4.23246        0.37293       -0.57849
H         -4.45793        0.58683        0.47544
H         -5.08074        0.78156       -1.14838
C          2.04585       -2.62915       -0.17348
H          2.48512       -3.57632       -0.51674
H          0.96029       -2.75935       -0.27963
C          2.73884        2.58645       -1.20367
H          2.57948        2.45368       -2.28177
H          1.79329        2.99097       -0.81774
C         -2.29263       -2.92903       -1.17485
H         -2.36141       -2.73299       -2.25291
H         -1.22942       -3.12387       -0.98138
C         -2.64968        2.32330       -0.08960
H         -3.53598        2.97310       -0.09724
H         -2.54303        1.99592        0.95274
C          2.38824       -2.41481        1.29565
H          3.46183       -2.47703        1.47861
H          1.91429       -3.16144        1.93716
H          2.06285       -1.43489        1.64323
C          3.86750        3.57609       -0.95589
H          4.02644        3.73132        0.11290
H          3.66311        4.55158       -1.40312
H          4.80994        3.21608       -1.37240
C         -3.11954       -4.15253       -0.80876
H         -3.04910       -4.36986        0.25872
H         -2.79301       -5.04457       -1.34827
H         -4.17605       -4.00074       -1.03686
C         -1.42599        3.11653       -0.51827
H         -1.28352        4.01087        0.09265
H         -0.51762        2.52112       -0.43108
H         -1.50618        3.43752       -1.55849
Cl        -1.70726        0.04240        2.37462
Pd        -0.06035        0.11292        0.85143
