75
-122.81238954
P          1.91140       -0.52660       -0.15424
C          3.35708       -1.21080       -0.99354
C          4.28990       -1.87849       -0.23139
C          5.41906       -2.41057       -0.82752
C          5.61098       -2.26724       -2.18700
C          4.67982       -1.58970       -2.94779
C          3.55529       -1.05957       -2.34585
H          2.83854       -0.50396       -2.92412
H          4.83176       -1.46820       -4.00777
H          6.49002       -2.68093       -2.65377
H          6.14666       -2.93582       -0.23088
H          4.13026       -1.98229        0.83001
C          1.63011       -1.57776        1.27358
C          1.89858       -1.11638        2.54181
C          1.79572       -1.97513        3.62063
C          1.43034       -3.29149        3.41885
C          1.16327       -3.74986        2.14392
C          1.26736       -2.88887        1.06606
H          1.08323       -3.23579        0.06118
H          0.87491       -4.77624        1.98746
H          1.34585       -3.96086        4.25930
H          1.99904       -1.61634        4.61613
H          2.19033       -0.08807        2.68081
C          2.26576        1.16276        0.34110
C          3.42175        1.81902       -0.01060
C          3.58723        3.16398        0.29140
C          2.55539        3.83421        0.94768
C          1.38747        3.18982        1.29182
C          1.24340        1.82323        1.00464
O          0.07330        1.12451        1.34204
C         -1.13576        1.78471        1.07166
C         -1.29581        3.15317        1.34078
C         -2.48757        3.76793        1.02746
C         -3.53100        3.06140        0.43053
C         -3.35880        1.70907        0.17093
C         -2.18001        1.07847        0.49358
P         -1.79919       -0.64264        0.10905
C         -1.75131       -1.57578        1.65010
C         -1.41268       -0.95702        2.83149
C         -1.46778       -1.65900        4.02093
C         -1.85600       -2.98385        4.01889
C         -2.18563       -3.60632        2.83130
C         -2.13544       -2.89768        1.64434
H         -2.40651       -3.36689        0.71208
H         -2.48543       -4.64134        2.82841
H         -1.89475       -3.53469        4.94444
H         -1.19920       -1.17454        4.94523
H         -1.08766        0.06936        2.81463
C         -3.10370       -1.38199       -0.88981
C         -2.81956       -1.98228       -2.09491
C         -3.83558       -2.56443       -2.83020
C         -5.12916       -2.55184       -2.34802
C         -5.40765       -1.96505       -1.12987
C         -4.38906       -1.38310       -0.39710
H         -4.58783       -0.94315        0.56769
H         -6.41541       -1.96264       -0.74818
H         -5.92179       -3.00420       -2.92141
H         -3.61676       -3.02615       -3.77900
H         -1.80556       -1.99289       -2.46019
Pd        -0.05692       -0.05529       -1.40452
Cl        -1.73554        0.88959       -2.59783
Cl         1.33653        0.96498       -2.85750
H         -4.14350        1.15686       -0.31403
C         -4.81383        3.73542        0.09581
H         -5.23430        3.33814       -0.82900
H         -4.67231        4.80841       -0.03952
H         -5.54698        3.58940        0.89005
H         -2.60650        4.81574        1.23970
S          0.04850        4.04822        2.07657
H          2.66377        4.87875        1.18085
C          4.84543        3.87244       -0.06504
H          4.19201        1.28749       -0.54214
H          4.65385        4.92131       -0.29512
H          5.55919        3.83243        0.75874
H          5.31542        3.42248       -0.94054
