87
-129.17905048
P         -1.77054       -0.35184        0.28611
P          1.53881        0.40241       -0.11307
C         -1.52730        1.07689       -0.80006
C          1.13189       -0.50862       -1.60772
C         -0.72964        1.10111       -1.94214
C         -0.59551        2.31228       -2.64812
C         -1.25951        3.43999       -2.19715
C         -2.03486        3.40084       -1.05935
C         -2.16133        2.21562       -0.36106
C          1.90335       -1.57746       -1.99228
C          1.59757       -2.26763       -3.14878
C          0.51594       -1.87972       -3.91252
C         -0.27646       -0.80591       -3.54016
C          0.04286       -0.09619       -2.36566
Cl         1.47158        1.27576        3.01616
Cl        -1.12994       -0.55024        3.44502
H         -2.53562        4.28967       -0.71222
H         -2.75436        2.17468        0.54062
H          2.74877       -1.86853       -1.39133
H          2.19959       -3.10901       -3.45040
H         -1.15257        4.36185       -2.74340
H          0.27143       -2.42018       -4.81118
C         -0.79448       -4.47314       -1.37118
C         -0.22258       -4.06615       -0.17392
C         -0.54255       -2.80674        0.31844
C         -1.39697       -1.98045       -0.37558
C         -1.98834       -2.40754       -1.54078
C         -1.68227       -3.65777       -2.04467
H         -0.54324       -5.44169       -1.76876
C          0.73609       -4.94555        0.54792
H         -0.15208       -2.48735        1.26941
H         -2.67430       -1.75658       -2.05792
H         -2.12862       -3.99032       -2.96745
C         -6.18866       -0.35906        1.39379
C         -5.24592       -0.53010        2.38788
C         -3.90269       -0.52820        2.06894
C         -3.50730       -0.35353        0.76487
C         -4.44521       -0.18396       -0.22831
C         -5.80319       -0.19045        0.07106
H         -7.23699       -0.35280        1.63939
H         -5.55648       -0.66146        3.41150
H         -3.15486       -0.65053        2.83295
H         -4.12155       -0.03430       -1.24536
C         -6.81537        0.02322       -0.99892
C          5.11939       -1.50389        1.96309
C          5.19426       -0.19945        1.51696
C          4.10900        0.37484        0.88279
C          2.96122       -0.35875        0.69404
C          2.88447       -1.65799        1.13917
C          3.96169       -2.24938        1.78719
H          5.96367       -1.95368        2.45719
H          6.09547        0.37230        1.66640
H          4.14997        1.39557        0.53911
H          1.98271       -2.22238        0.97904
C          3.87574       -3.65846        2.25823
C          2.54278        4.69875       -1.19464
C          1.81149        4.43921       -0.05230
C          1.51346        3.13509        0.29283
C          1.93998        2.10472       -0.51101
C          2.68013        2.35747       -1.64250
C          2.98656        3.66406       -2.00656
H          2.78118        5.71374       -1.46344
H          1.47863        5.25102        0.57338
H          0.97131        2.91322        1.19712
H          3.01391        1.53409       -2.25258
C          3.79778        3.94459       -3.22228
Pd         0.05772        0.15460        1.68007
C          0.24619        2.41318       -3.87323
C         -1.44603       -0.43094       -4.38189
H          0.81865        3.34169       -3.87576
H          0.95763        1.58963       -3.94001
H         -0.37201        2.39948       -4.77160
H         -1.12147        0.03482       -5.31320
H         -2.03953       -1.31027       -4.63638
H         -2.10222        0.27007       -3.86466
H          0.76401       -4.70771        1.61216
H          0.45556       -5.99531        0.45117
H          1.74403       -4.82801        0.14766
H         -7.75040       -0.48760       -0.76452
H         -7.03248        1.08545       -1.11971
H         -6.46071       -0.35891       -1.95732
H          4.66190       -3.88401        2.98004
H          2.91762       -3.84856        2.74391
H          3.97703       -4.35358        1.42365
H          3.72768        3.12671       -3.94098
H          3.45676        4.85329       -3.72051
H          4.84950        4.07573       -2.96405
