111
-148.55179765
P         -1.51852        2.66043        1.11206
P         -0.32574       -0.21110        0.53426
C         -1.02614        1.58859        2.49398
C         -0.57770        0.30936        2.24116
C         -0.37573        4.10935        0.99448
C          0.41969        4.06040       -0.29292
C         -1.06817        2.05550        3.79233
H         -1.37682        3.07018        3.98300
C         -0.68961        1.22823        4.83563
H         -0.72704        1.59164        5.84962
C         -0.25796       -0.05911        4.57924
H          0.04167       -0.70093        5.39131
C         -0.19102       -0.51670        3.27545
H          0.17809       -1.50571        3.05313
Pd        -1.66122        1.21895       -0.69475
Cl        -3.16548        2.60398       -1.60527
Cl        -1.49724       -0.26522       -2.37655
C         -1.31998        5.32258        1.11240
C         -3.12258        3.53885        1.41103
H          1.07836        4.92672       -0.38915
H          1.03685        3.16118       -0.34762
H         -0.24716        4.05109       -1.15755
H         -1.52847        5.70447        0.10364
H         -0.81916        6.14785        1.64069
H         -3.62856        3.57715        0.43794
C         -2.66122        4.95240        1.80805
C         -4.00036        2.83607        2.42478
H          0.28383        4.04676        1.86968
H         -2.53685        4.99395        2.89874
H         -3.44346        5.69029        1.57268
H         -4.95265        3.35532        2.55408
H         -4.21350        1.80958        2.11784
H         -3.51899        2.79155        3.40180
C         -0.81548       -4.68909       -0.13029
C         -1.90879       -3.92236        0.34823
C         -1.71537       -2.56801        0.56951
C         -0.52039       -1.96844        0.26929
C          0.50337       -2.68439       -0.29385
C          0.37531       -4.04002       -0.54469
O         -0.90047       -6.10651       -0.16555
C         -3.28467       -4.54114        0.64135
H         -2.50014       -1.95754        0.98267
H          1.41232       -2.16430       -0.54048
C          1.52147       -4.78168       -1.25055
C          3.68326        1.41580       -0.90161
C          3.32801        1.52171        0.46755
C          2.12332        0.97579        0.87727
C          1.26201        0.40830       -0.02480
C          1.55119        0.40717       -1.36358
C          2.73771        0.93344       -1.84180
O          4.99174        1.76964       -1.32583
C          4.23205        2.20732        1.50385
H          1.83652        0.99348        1.91372
H          0.81106        0.01195       -2.03641
C          2.97778        0.97812       -3.35892
C         -3.57738       -5.71791       -0.30744
C         -3.32867       -5.01492        2.10184
C         -4.40704       -3.50069        0.42464
C          2.50442       -5.32054       -0.20062
C          0.98274       -5.93554       -2.11566
C          2.28468       -3.82726       -2.19773
C         -0.45878       -6.74389        1.02632
H         -3.50148       -5.40010       -1.34677
H         -2.87511       -6.53390       -0.15632
H         -4.58013       -6.11241       -0.14521
H         -3.15394       -4.18198        2.78248
H         -4.29842       -5.44995        2.34225
H         -2.56620       -5.76560        2.29561
H         -5.38838       -3.96813        0.50225
H         -4.37144       -2.70753        1.16986
H         -4.32920       -3.04763       -0.56339
H          2.91271       -4.50675        0.39826
H          2.01543       -6.01671        0.47653
H          3.33602       -5.84077       -0.67528
H          0.49731       -6.69442       -1.50699
H          0.25205       -5.56642       -2.83458
H          1.78734       -6.42063       -2.66771
H          2.83816       -3.06878       -1.64596
H          3.00853       -4.37585       -2.79993
H          1.59618       -3.32496       -2.87688
H          0.36034       -7.42442        0.79448
H         -0.12237       -6.00276        1.75243
H         -1.27472       -7.32678        1.45322
C          5.91818        0.69119       -1.30835
C          5.20156        1.17373        2.09595
C          5.01687        3.36938        0.86835
C          3.39067        2.80906        2.65252
C          1.63793        1.11303       -4.11878
C          3.83716        2.19492       -3.74699
C          3.66489       -0.32117       -3.80480
H          4.65390        0.36151        2.57342
H          5.83275        0.73879        1.32479
H          5.84970        1.62981        2.84387
H          4.33653        4.08452        0.40697
H          5.60895        3.89744        1.61538
H          5.69877        3.01383        0.09980
H          2.91598        2.03587        3.25480
H          4.01680        3.39692        3.32329
H          2.61447        3.46522        2.26069
H          1.03151        0.21284       -4.03102
H          1.05905        1.95438       -3.73857
H          1.81066        1.27885       -5.18180
H          3.95353        2.26386       -4.82826
H          3.37603        3.11746       -3.39576
H          4.83182        2.13295       -3.31258
H          3.84766       -0.31752       -4.87903
H          3.04247       -1.18445       -3.57198
H          4.61925       -0.45600       -3.30150
H          5.43544       -0.22000       -0.95273
H          6.30868        0.52809       -2.31267
H          6.75418        0.93906       -0.65453
