171
-217.83869175
P         -1.52377        0.25903       -0.33829
P          1.70495       -0.59642       -0.24023
C         -0.78760        0.98272       -1.81294
C          0.98214       -1.70869       -1.47015
C         -0.06969        0.19417       -2.70186
C          0.51868        0.79749       -3.83028
C          0.35893        2.15891       -4.03101
C         -0.35178        2.92783       -3.13474
C         -0.92121        2.33304       -2.02650
C          1.22690       -3.05281       -1.31440
C          0.60047       -3.97936       -2.12442
C         -0.30506       -3.55362       -3.07192
C         -0.57355       -2.20706       -3.24637
C          0.10900       -1.26036       -2.45786
Cl         1.43293       -0.23348        3.05048
Cl        -1.69745       -1.06697        2.67472
C         -1.60102       -1.79860       -4.24402
C          1.30271       -0.01540       -4.80160
H         -0.45964        3.98815       -3.29529
H         -1.47003        2.93060       -1.31913
H          1.91263       -3.38468       -0.55272
H          0.80347       -5.03072       -2.00100
H          0.80163        2.61792       -4.89859
H         -0.81929       -4.27156       -3.68852
C         -4.18226       -3.27957       -1.31265
C         -3.06443       -3.47102       -0.51073
C         -2.26980       -2.36707       -0.23321
C         -2.58985       -1.12814       -0.73081
C         -3.69581       -0.95889       -1.52601
C         -4.51621       -2.03598       -1.83729
H         -4.81091       -4.12478       -1.52034
H         -1.39062       -2.46899        0.37777
H         -3.92390        0.02012       -1.90720
C         -3.85000        3.59932        1.71815
C         -4.13930        3.26810        0.40000
C         -3.43146        2.22299       -0.17942
C         -2.46518        1.54426        0.52356
C         -2.19878        1.89078        1.82626
C         -2.88659        2.91935        2.45214
H         -4.38528        4.40471        2.18275
H         -3.61055        1.96447       -1.20867
H         -1.45094        1.35338        2.37878
C          4.97078       -2.65963        2.13592
C          3.65864       -3.10058        2.26585
C          2.68116       -2.45711        1.52031
C          3.00567       -1.41951        0.68314
C          4.30552       -0.99580        0.56655
C          5.31727       -1.60613        1.29639
H          5.73916       -3.14306        2.70767
H          1.64852       -2.74939        1.61738
H          4.53112       -0.17525       -0.09193
C          3.03035        3.59340       -1.34473
C          2.09472        3.42502       -0.33095
C          1.69128        2.13128       -0.03342
C          2.19313        1.05926       -0.73235
C          3.11842        1.24299       -1.72982
C          3.56224        2.52015       -2.05192
H          3.36551        4.58532       -1.57816
H          0.99246        1.96056        0.76674
H          3.50997        0.38208       -2.24537
Pd        -0.01214       -0.40524        1.33263
C         -3.91858       -5.27752        0.99776
C         -2.75975       -4.85677        0.07607
C         -1.45782       -4.85042        0.90339
C         -2.60704       -5.87727       -1.06613
H         -3.72616       -6.25145        1.44741
H         -4.05081       -4.55391        1.80195
H         -4.85709       -5.34229        0.44839
H         -1.24763       -5.84231        1.30297
H         -0.60615       -4.55404        0.29248
H         -1.53166       -4.16492        1.74745
H         -1.80414       -5.58268       -1.74036
H         -2.37223       -6.86723       -0.67545
H         -3.52211       -5.95880       -1.65134
C         -6.44693       -3.13648       -3.07923
C         -5.78525       -1.80581       -2.67139
C         -5.43945       -1.02879       -3.95681
C         -6.78536       -0.99175       -1.83154
H         -6.78867       -3.69180       -2.20615
H         -7.31594       -2.95789       -3.71244
H         -5.75158       -3.76281       -3.63800
H         -5.01730       -0.04998       -3.73372
H         -4.71702       -1.57862       -4.55872
H         -6.32966       -0.87108       -4.56553
H         -7.70188       -0.80054       -2.38937
H         -7.04873       -1.52767       -0.91989
H         -6.36089       -0.03159       -1.54137
C         -6.19207        3.05594       -1.03283
C         -5.16280        4.04000       -0.44500
C         -4.42400        4.75951       -1.58860
C         -5.91826        5.09024        0.39180
H         -6.95767        3.58495       -1.60013
H         -5.71881        2.34158       -1.70496
H         -6.68617        2.49564       -0.23933
H         -5.11830        5.33260       -2.20279
H         -3.67623        5.44617       -1.19202
H         -3.91289        4.04832       -2.23682
H         -6.65880        5.60930       -0.21664
H         -6.44325        4.62282        1.22472
H         -5.23630        5.84168        0.78923
C         -1.07524        3.61441        4.04495
C         -2.56505        3.24559        3.91779
C         -2.86455        2.00817        4.78485
C         -3.40630        4.42642        4.43801
H         -0.82184        3.86430        5.07494
H         -0.43469        2.78874        3.73762
H         -0.83800        4.47577        3.42154
H         -3.91012        1.71617        4.69036
H         -2.25313        1.15769        4.48530
H         -2.66270        2.20974        5.83657
H         -4.47142        4.20070        4.39041
H         -3.16253        4.64615        5.47737
H         -3.21653        5.32872        3.85686
C          2.27202       -3.67040        4.27055
C          3.24256       -4.23304        3.21470
C          4.45581       -4.84644        3.93882
C          2.54172       -5.34216        2.40732
H          1.96789       -4.44446        4.97471
H          2.74213       -2.86472        4.83383
H          1.37186       -3.26828        3.80701
H          4.14315       -5.65418        4.60048
H          5.16922       -5.26045        3.22646
H          4.96698       -4.10139        4.54816
H          3.20260       -5.73090        1.63285
H          2.25271       -6.17133        3.05283
H          1.64031       -4.97029        1.92175
C          7.72122       -1.82174        2.11076
C          6.75951       -1.10076        1.14669
C          6.80583        0.40860        1.45426
C          7.23224       -1.34992       -0.29673
H          7.75628       -2.89137        1.90501
H          8.73476       -1.43449        2.00684
H          7.41698       -1.67771        3.14736
H          6.43816        0.60693        2.46080
H          7.82453        0.78971        1.38528
H          6.19199        0.97694        0.75668
H          7.20443       -2.41351       -0.53281
H          6.59596       -0.83307       -1.01374
H          8.25365       -0.99783       -0.44010
C          1.98985        4.39557        1.97215
C          1.55445        4.59291        0.50835
C          0.01721        4.62566        0.42678
C          2.09290        5.94899        0.01408
H          1.63132        5.21054        2.60056
H          1.59997        3.46271        2.37739
H          3.07640        4.36229        2.04886
H         -0.41928        3.69565        0.78717
H         -0.38927        5.43800        1.02881
H         -0.30886        4.77789       -0.60128
H          1.68706        6.76604        0.61054
H          3.17899        5.99323        0.09233
H          1.81218        6.12653       -1.02401
C          5.94174        1.99120       -2.62051
C          4.66322        2.69689       -3.10863
C          4.98662        4.18320       -3.35546
C          4.20877        2.07455       -4.43996
H          6.26742        2.40052       -1.66439
H          5.77348        0.92333       -2.48802
H          6.75441        2.11469       -3.33609
H          4.10416        4.72437       -3.69656
H          5.35878        4.66082       -2.44932
H          5.75526        4.28925       -4.12095
H          4.02576        1.00637       -4.33399
H          3.29024        2.54496       -4.78869
H          4.96771        2.20545       -5.21114
H         -1.83330       -0.73538       -4.17024
H          1.99489       -0.68093       -4.28333
H         -2.52844       -2.34961       -4.08171
H         -1.26473       -2.00386       -5.26125
H          1.88526        0.61618       -5.47329
H          0.64518       -0.62891       -5.41782
