111
-148.55183667
P         -2.59667        2.05383        0.79720
P          0.17451        0.45860        0.47159
C         -1.47040        1.84992        2.21017
C         -0.26562        1.19626        2.05660
C         -3.56605        3.62472        0.93825
C         -3.46319        4.45049       -0.32487
C         -1.83027        2.33839        3.45022
H         -2.78040        2.83172        3.57349
C         -0.97895        2.17940        4.53013
H         -1.26107        2.56199        5.49744
C          0.22884        1.52829        4.37084
H          0.89067        1.40174        5.21177
C          0.58388        1.03045        3.13016
H          1.51596        0.50484        2.99144
Pd        -1.28823        1.45579       -1.00760
Cl        -3.00031        2.05493       -2.32775
Cl         0.06528        0.83272       -2.69162
C         -4.99278        3.12050        1.24109
C         -3.96848        0.81248        0.78377
H         -3.88295        3.90759       -1.17285
H         -4.00996        5.39218       -0.23508
H         -2.42303        4.68313       -0.56477
H         -5.72711        3.82718        0.82748
H         -5.16596        3.11613        2.32734
H         -3.83452        0.20089       -0.11931
C         -5.23183        1.69115        0.67715
C         -3.91964       -0.05640        2.02157
H         -3.15097        4.18198        1.78863
H         -6.06527        1.20151        1.20168
H         -5.54575        1.76475       -0.37456
H         -2.96799       -0.58753        2.09254
H         -4.02528        0.55057        2.92273
H         -4.72182       -0.79826        2.02424
C         -1.20303       -3.87953        0.27019
C         -1.02567       -3.26315        1.53588
C         -0.58963       -1.94896        1.57174
C         -0.39984       -1.23778        0.41634
C         -0.67142       -1.79770       -0.80351
C         -1.11581       -3.10253       -0.91276
O         -1.42718       -5.27956        0.18800
C         -1.26416       -4.01278        2.85600
H         -0.38265       -1.46207        2.50822
H         -0.51805       -1.19308       -1.68024
C         -1.46972       -3.64833       -2.30450
C          4.56962        0.75193       -0.68237
C          3.83660       -0.42976       -0.95931
C          2.50191       -0.47056       -0.59533
C          1.91459        0.57045        0.07438
C          2.64277        1.67539        0.43001
C          3.98613        1.77805        0.10523
O          5.87093        0.92391       -1.22476
C          4.44505       -1.64182       -1.68171
H          1.89229       -1.32002       -0.84825
H          2.14124        2.46497        0.96241
C          4.78021        3.00374        0.58415
C         -1.67577       -3.03370        3.97894
C         -2.40661       -5.03454        2.71119
C          0.03090       -4.72310        3.27764
C         -2.03466       -2.52046       -3.19958
C         -0.20257       -4.21224       -2.96517
C         -2.55562       -4.73577       -2.21777
C         -0.23773       -6.04720        0.05195
H         -2.53289       -2.43340        3.67618
H         -1.95256       -3.57695        4.88220
H         -0.86224       -2.36157        4.24775
H         -2.61987       -5.52151        3.66243
H         -3.31776       -4.54517        2.36855
H         -2.15481       -5.81142        1.99337
H          0.84033       -4.00462        3.40505
H         -0.10312       -5.25207        4.22089
H          0.34504       -5.44650        2.52921
H         -1.27421       -1.78266       -3.45043
H         -2.41005       -2.92359       -4.13972
H         -2.85754       -2.00690       -2.70303
H          0.55359       -3.43491       -3.07289
H          0.22945       -5.01356       -2.37012
H         -0.42213       -4.60820       -3.95630
H         -3.44167       -4.35287       -1.71248
H         -2.85093       -5.07486       -3.21037
H         -2.20614       -5.60360       -1.66450
H         -0.25113       -6.58161       -0.89768
H          0.63966       -5.40031        0.09197
H         -0.18510       -6.78191        0.85536
C          5.88564        1.54270       -2.50514
C          3.75937       -2.95055       -1.22447
C          4.23639       -1.48356       -3.19552
C          5.94381       -1.78616       -1.36219
C          6.25673        2.64593        0.83410
C          4.67659        4.11969       -0.46632
C          4.21379        3.53098        1.92235
H          3.77379       -3.03697       -0.13831
H          2.72433       -3.00347       -1.55849
H          4.27160       -3.81984       -1.63624
H          4.64528       -2.33563       -3.73787
H          3.17498       -1.40989       -3.43165
H          4.72010       -0.58374       -3.56801
H          6.10147       -1.85701       -0.28651
H          6.35895       -2.68073       -1.82575
H          6.51161       -0.93379       -1.72641
H          6.75256        2.34188       -0.08433
H          6.80379        3.49801        1.23682
H          6.33734        1.82426        1.54497
H          3.63628        4.40063       -0.62855
H          5.22079        5.00821       -0.14721
H          5.08546        3.80071       -1.42199
H          4.15653        2.73160        2.66076
H          3.21917        3.95702        1.80004
H          4.85000        4.31691        2.32876
H          6.34230        0.87088       -3.23167
H          4.87023        1.78465       -2.82171
H          6.48114        2.45458       -2.46360
