59
-75.81314392
Cl         1.62396        0.58613        2.31857
P          1.57858       -0.04401       -0.88105
P         -1.60700       -0.05029       -0.81374
C          0.58104        0.39234       -2.36816
H          0.32964        1.45528       -2.33061
H          1.18757        0.22533       -3.26397
C         -0.65857       -0.45284       -2.34539
H         -0.40281       -1.51564       -2.32694
H         -1.30125       -0.28003       -3.21479
C          2.48124       -1.62457       -1.25989
H          2.28608       -1.79413       -2.32748
C          3.03837        1.07370       -0.63454
H          3.15814        1.17558        0.45094
C         -2.94370       -1.29468       -0.49792
H         -3.30777       -1.09555        0.51768
C         -2.73075        1.37652       -1.20907
H         -2.24730        1.95029       -2.00915
C          3.96511       -1.26453       -1.06606
H          4.29152       -1.58036       -0.06806
H          4.59157       -1.83325       -1.76970
C          4.20552        0.26035       -1.21980
H          4.31240        0.51083       -2.28430
H          5.15464        0.55959       -0.74935
C         -3.99889       -0.86201       -1.52891
H         -3.76225       -1.34727       -2.48713
H         -4.99235       -1.24388       -1.24629
C         -4.02384        0.68527       -1.71341
H         -4.87975        1.10115       -1.16390
H         -4.21028        0.94179       -2.76682
C          1.98892       -2.82389       -0.45167
H          2.47727       -3.73342       -0.82843
H          0.92115       -2.96704       -0.66218
C          2.86287        2.44944       -1.26598
H          3.82526        2.97953       -1.24239
H          2.62939        2.32517       -2.33129
C         -2.49587       -2.74825       -0.60914
H         -3.38354       -3.39066       -0.69179
H         -1.95445       -2.88712       -1.55284
C         -2.98309        2.27197        0.00295
H         -3.84957        2.91498       -0.20659
H         -3.28982        1.64019        0.84705
C          2.20971       -2.71882        1.05157
H          1.81806       -1.78403        1.45063
H          3.26840       -2.75549        1.31169
H          1.72215       -3.53313        1.59274
C          1.79487        3.28394       -0.57912
H          2.03176        3.43866        0.47525
H          0.82562        2.78801       -0.61798
H          1.67986        4.26754       -1.04015
C         -1.64655       -3.19435        0.57060
H         -0.77022       -2.55804        0.69043
H         -1.29697       -4.22355        0.46217
H         -2.20750       -3.13382        1.50516
C         -1.79749        3.13843        0.39538
H         -2.03658        3.80409        1.22791
H         -0.94660        2.53429        0.70637
H         -1.46983        3.76141       -0.43895
Cl        -1.60200        0.00335        2.38810
Pd         0.01610        0.09377        0.83764
