105
-153.06163065
Cl         0.57850        3.67965        1.52248
Pd        -0.08768        1.94742        0.24617
P         -0.75080        0.26670       -1.29816
N          0.09281       -1.14068       -1.97175
C          0.17127       -2.47546       -1.58677
C         -0.15913       -2.96780       -0.29478
C          0.14711       -4.30695        0.03273
C         -0.01709       -4.76792        1.46314
C          0.77665       -6.03950        1.79623
C          0.53528       -7.11489        0.73306
C          0.97333       -6.62282       -0.65610
C          0.65004       -5.17488       -0.93897
C          0.89630       -4.68845       -2.21579
C          0.68124       -3.37099       -2.52632
H          0.91944       -3.00666       -3.51072
H          1.29171       -5.35848       -2.96060
H          2.05519       -6.76212       -0.76940
H          1.05151       -8.04811        0.99913
H          1.84672       -5.80002        1.83480
H          0.28013       -3.95241        2.13476
C         -0.73078       -2.10517        0.77394
C          0.10994       -1.13972        1.38732
C         -0.33210       -0.47651        2.53232
C         -1.57762       -0.73288        3.04404
C         -2.43717       -1.64453        2.43751
C         -3.78914       -1.87346        3.07335
C         -4.75001       -2.76854        2.26883
C         -3.99999       -3.88992        1.54235
C         -2.94455       -3.29637        0.59975
C         -2.01629       -2.33360        1.29632
H         -2.37216       -4.09032        0.10671
H         -4.69632       -4.54093        0.99501
H         -5.28537       -2.15941        1.53074
H         -4.25395       -0.89711        3.26067
H         -1.91098       -0.21217        3.92569
H          0.30637        0.25536        2.99194
N          1.27170       -0.77763        0.71092
P          1.83690        0.83108        0.96504
C          2.93643        1.32399       -0.35592
C          3.16421        2.66254       -0.56976
C          3.92747        3.06387       -1.65059
C          4.46216        2.12521       -2.52341
C          4.20643        0.77886       -2.29768
C          3.44380        0.37905       -1.21524
H          3.22937       -0.66386       -1.04645
H          4.60035        0.04593       -2.98087
C          5.24957        2.55650       -3.71127
H          4.09839        4.11123       -1.83165
H          2.70254        3.38418        0.08589
C          2.63334        0.90295        2.56750
C          2.51919        2.00740        3.37636
C          3.13830        2.02379        4.61139
C          3.88185        0.93303        5.04212
C          3.97659       -0.17909        4.21581
C          3.35478       -0.19191        2.97947
H          3.41592       -1.05505        2.33500
H          4.53674       -1.03653        4.54761
C          4.52775        0.93788        6.38396
H          3.04519        2.88486        5.25097
H          1.93700        2.84741        3.03773
H          1.11503       -0.86292       -0.29258
H          0.30531       -0.92839       -2.93867
C         -0.62527        1.46371       -2.63617
C         -1.73275        1.97923       -3.26553
C         -1.57582        2.90705       -4.27846
C         -0.30901        3.31883       -4.67118
C          0.79635        2.79243       -4.01705
C          0.63665        1.86423       -3.00468
H          1.49302        1.46448       -2.48635
H          1.78282        3.11925       -4.29797
C         -0.14097        4.34214       -5.73969
H         -2.43997        3.32355       -4.76723
H         -2.71536        1.66581       -2.95391
C         -2.48306       -0.16080       -1.13762
C         -3.03746       -0.94321       -2.12244
C         -4.38306       -1.26295       -2.07264
C         -5.17981       -0.79989       -1.03480
C         -4.60008       -0.01299       -0.04826
C         -3.25573        0.30427       -0.10064
H         -2.80648        0.91613        0.66439
H         -5.20750        0.35292        0.76172
C         -6.62308       -1.16209       -0.97911
H         -4.82212       -1.87866       -2.83894
H         -2.41225       -1.30285       -2.92464
Cl        -1.99181        3.04734       -0.22695
H          0.51640       -7.24242       -1.43833
H          0.52041       -6.41318        2.79774
H         -0.53267       -7.36642        0.71090
H         -1.07899       -4.94210        1.66601
H         -3.50792       -4.53542        2.28040
H         -3.44476       -2.76286       -0.21486
H         -3.62777       -2.31227        4.06533
H         -5.53055       -3.18517        2.92088
H          4.60281        2.67703       -4.58144
H          5.74892        3.50903       -3.52865
H          6.01745        1.82312       -3.96136
H          4.80957        1.94883        6.68162
H          3.85043        0.54048        7.14110
H          5.43226        0.32802        6.38775
H          0.80425        4.20870       -6.26777
H         -0.94329        4.27800       -6.47604
H         -0.15136        5.34763       -5.31690
H         -7.12899       -0.88599       -1.90532
H         -6.74798       -2.23619       -0.83415
H         -7.13033       -0.65280       -0.15860
