72
-98.09304752
Fe         0.03363        2.79205        0.00659
P          1.90256       -0.06924        0.01369
P         -1.81156       -0.06826        0.04293
C          1.41897        1.54953        0.73600
C          0.37706        1.76537        1.72692
C          0.30215        3.18913        2.00200
C          1.31151        3.85583        1.19948
C          2.00691        2.84304        0.42278
C         -1.38908        1.56562       -0.67879
C         -1.98138        2.84939       -0.33655
C         -1.32188        3.87278       -1.12977
C         -0.34600        3.22158       -1.98426
C         -0.39581        1.79619       -1.71223
C          3.26648       -0.81507        1.04125
C          4.53640       -0.62086        0.18320
C          2.86340        0.20777       -1.55307
C          4.29923        0.34255       -1.00922
C         -3.06743       -0.84373       -1.07405
C         -4.34142       -0.07721       -0.68387
C         -2.95204        0.18756        1.48857
C         -4.34399        0.32470        0.82292
H         -0.27193        0.99782        2.14731
H         -0.38549        3.67138        2.70067
H          1.52053        4.92814        1.19058
H          2.82258        3.02103       -0.28103
H         -2.77389        3.01251        0.39655
H          0.20212        1.02585       -2.19641
Cl         1.66073       -3.04545       -0.25812
Cl        -1.54517       -3.07727        0.32067
Pd         0.04678       -1.50291        0.07039
H          3.03439       -1.88111        1.15013
C          3.37051       -0.18557        2.42782
H          2.51426        1.14396       -2.00492
C          2.73998       -0.94639       -2.54832
H          4.88318       -1.59310       -0.19598
H          5.35439       -0.24938        0.81641
H          4.48219        1.37804       -0.68630
H          5.02450        0.15051       -1.81424
H         -1.54151        4.94243       -1.10632
H          0.30122        3.71342       -2.71379
H          4.33546       -0.45877        2.87719
H          3.53743       -0.85473       -3.29881
H         -3.16030       -1.89864       -0.79288
C         -2.66825       -0.72134       -2.53852
H         -2.64918        1.12105        1.97783
C         -2.90705       -0.96632        2.48868
H         -5.23777       -0.66465       -0.93599
H         -4.40163        0.82666       -1.30749
H         -4.72769        1.34869        0.94327
H         -5.05684       -0.30976        1.36805
H         -2.55903        0.34185       -2.78995
H         -3.09583       -1.90249        1.94735
C          2.24163       -0.60248        3.35559
H          1.27237       -0.34281        2.93391
H          2.23929       -1.68239        3.51568
H          2.31391       -0.12316        4.33446
C          1.39564       -1.03835       -3.25000
H          1.18618       -0.13670       -3.82839
H          1.35337       -1.88392       -3.94039
H          0.58432       -1.16856       -2.53534
C         -3.65652       -1.38891       -3.48254
H         -3.76092       -2.45133       -3.25456
H         -4.64894       -0.94249       -3.39894
H         -3.34632       -1.30532       -4.52661
C         -1.61011       -1.06738        3.27364
H         -0.76212       -1.24838        2.61455
H         -1.40841       -0.14905        3.82811
H         -1.63348       -1.88647        3.99608
H          3.40167        0.90635        2.31924
H          2.95476       -1.88312       -2.01825
H         -1.66839       -1.15427       -2.67369
H         -3.74952       -0.86339        3.18696
