111
-148.55603095
P         -2.56004        2.19080       -0.28106
P         -0.01571        0.43558        0.46945
C         -1.86842        2.27236        1.38718
C         -0.77807        1.49633        1.71611
C         -2.72849        3.86944       -1.03636
C         -1.61086        4.13845       -2.02127
C         -2.43469        3.10692        2.32900
H         -3.27773        3.72141        2.05699
C         -1.91478        3.15083        3.61092
H         -2.35716        3.80001        4.34880
C         -0.83076        2.36214        3.94458
H         -0.42634        2.39396        4.94292
C         -0.26030        1.53445        2.99402
H          0.58771        0.91751        3.24247
Pd        -1.20526        0.79001       -1.50343
Cl        -2.68139        0.86830       -3.18454
Cl         0.29670       -0.57465       -2.46574
C         -4.13377        3.82070       -1.66275
C         -4.32734        1.63354       -0.33314
H         -1.62108        3.40315       -2.82818
H         -1.70814        5.12734       -2.47540
H         -0.63271        4.08149       -1.53726
H         -4.04419        3.47165       -2.70086
H         -4.56073        4.83323       -1.72685
H         -4.35464        0.81465       -1.06413
C         -5.07608        2.86664       -0.87657
C         -4.81847        1.16561        1.02201
H         -2.70096        4.58821       -0.20703
H         -5.52132        3.41027       -0.03220
H         -5.92491        2.55233       -1.50238
H         -4.17587        0.38675        1.43622
H         -4.82672        1.98872        1.73778
H         -5.83618        0.77265        0.96420
C         -1.05931       -3.95576        1.08293
C          0.30045       -3.57719        0.94618
C          0.59359       -2.23340        0.79287
C         -0.40270       -1.29479        0.72120
C         -1.72181       -1.66910        0.73043
C         -2.08413       -3.00077        0.85626
O         -1.38541       -5.27664        1.48978
C          1.44644       -4.59987        0.98187
H          1.61338       -1.90284        0.71653
H         -2.46843       -0.90248        0.61769
C         -3.56740       -3.38323        0.73255
C          4.46548        1.07775       -0.08336
C          3.54868        1.62180       -1.02089
C          2.19642        1.40712       -0.81402
C          1.74194        0.74683        0.29777
C          2.61749        0.33890        1.27166
C          3.98295        0.52662        1.13338
O          5.84684        1.00773       -0.39848
C          3.96407        2.42462       -2.26479
H          1.47860        1.73462       -1.54660
H          2.22601       -0.15219        2.14603
C          4.88606        0.13571        2.31593
C          1.00411       -5.94137        0.36961
C          2.65183       -4.09972        0.15344
C          1.89916       -4.80738        2.43473
C         -3.73836       -4.84025        0.26484
C         -4.25771       -3.18062        2.08944
C         -4.26077       -2.49518       -0.32550
C         -1.53148       -5.42079        2.89667
H          0.63743       -5.79684       -0.64609
H          1.83235       -6.64862        0.33455
H          0.20611       -6.39721        0.95105
H          2.34181       -3.82540       -0.85457
H          3.12632       -3.23434        0.61300
H          3.41313       -4.87499        0.07052
H          2.73124       -5.50901        2.48794
H          2.22252       -3.86518        2.87651
H          1.08973       -5.20034        3.04562
H         -4.78921       -5.07999        0.10455
H         -3.20551       -5.00710       -0.67069
H         -3.35000       -5.54188        0.99842
H         -4.17871       -2.14278        2.41196
H         -5.31532       -3.43669        2.03197
H         -3.80114       -3.80122        2.85782
H         -5.27949       -2.83490       -0.51043
H         -4.32332       -1.45819       -0.00460
H         -3.71949       -2.52586       -1.27080
H         -2.56903       -5.64829        3.13972
H         -0.90848       -6.24562        3.24281
H         -1.23482       -4.50260        3.40522
C          6.19721       -0.19759       -1.05821
C          3.76512        1.55703       -3.51898
C          3.08192        3.68774       -2.38049
C          5.42509        2.90103       -2.19319
C          6.30980        0.70309        2.18003
C          4.29497        0.71106        3.62194
C          4.95259       -1.39666        2.42644
H          4.38685        0.66470       -3.48280
H          2.72830        1.23422       -3.60859
H          4.02396        2.11061       -4.42108
H          2.03736        3.43791       -2.55865
H          3.13665        4.27992       -1.46746
H          3.40974        4.31562       -3.20859
H          5.67001        3.54560       -3.03703
H          5.60244        3.45992       -1.27502
H          6.11505        2.06071       -2.21046
H          6.83148        0.26143        1.33439
H          6.28079        1.78150        2.02822
H          6.90049        0.50078        3.07319
H          3.32621        0.27283        3.85564
H          4.95340        0.51200        4.46713
H          4.16641        1.79019        3.54266
H          5.36364       -1.83936        1.52111
H          3.96076       -1.81893        2.58347
H          5.58098       -1.69969        3.26352
H          5.64924       -0.28346       -1.99503
H          7.26752       -0.19632       -1.26543
H          5.95252       -1.05279       -0.43027
