45
-71.81465841
C          1.35835        0.75311        2.54892
P          1.29498        0.66889        0.72794
P         -1.32339        0.28139       -1.05129
C         -1.41943       -0.10680       -2.83070
Cl         1.31890       -2.40766        1.50031
H          0.35267        0.84174        2.94997
H         -0.44756        0.04595       -3.29146
Cl        -1.23188       -2.84620       -0.68486
C          0.43264        2.10457        0.05455
C         -0.67261        1.93306       -0.74949
C         -1.32926        3.02702       -1.27398
C         -0.86817        4.30226       -0.99727
C          0.23831        4.47596       -0.18874
C          0.88836        3.37530        0.34151
H         -2.20374        2.87653       -1.88684
H         -1.37718        5.15909       -1.40706
H          0.59497        5.46871        0.03136
H          1.74853        3.49937        0.97988
Pd         0.01279       -1.17965        0.15053
H         -2.14631        0.53909       -3.31490
H          1.94221        1.61421        2.86101
H         -1.71504       -1.14282       -2.96963
C         -5.19595       -0.20876        1.28107
C         -5.11116       -0.72786        0.00389
C         -3.94572       -0.57952       -0.72620
C         -2.87770        0.09001       -0.17457
C         -2.95372        0.60368        1.10094
C         -4.11875        0.45654        1.83253
H         -6.10358       -0.32671        1.85022
H         -5.95007       -1.25300       -0.42247
H         -3.86243       -0.99197       -1.71841
H         -2.09974        1.11487        1.51729
H         -4.18292        0.85764        2.83064
C          5.49066        0.26039       -1.00530
C          4.93473       -0.77180       -0.27628
C          3.65994       -0.63798        0.24109
C          2.94830        0.52128        0.03399
C          3.49839        1.54942       -0.69856
C          4.77315        1.42064       -1.21946
H          6.48414        0.15897       -1.41074
H          5.48967       -1.68124       -0.11417
H          3.20115       -1.44238        0.79144
H          2.92781        2.44714       -0.86723
H          5.20499        2.22512       -1.79190
H          1.81826       -0.14780        2.94485
