111
-148.54989576
P         -2.41970        2.19898        0.60070
P          0.11749        0.32098        0.48085
C         -1.36032        2.03017        2.05989
C         -0.25750        1.20692        2.00373
C         -2.71483        3.98625        0.22028
C         -2.18659        4.34202       -1.15238
C         -1.63880        2.73118        3.21584
H         -2.48746        3.39468        3.24490
C         -0.82051        2.58732        4.32287
H         -1.03883        3.13183        5.22700
C          0.27599        1.74844        4.26922
H          0.91297        1.63542        5.13101
C          0.55987        1.05799        3.10449
H          1.41605        0.40525        3.04542
Pd        -1.50596        0.89422       -1.07813
Cl        -3.26036        1.47414       -2.34636
Cl        -0.37003       -0.28130       -2.61201
C         -4.24384        4.14009        0.36928
C         -4.16353        1.62411        0.84081
H         -1.11932        4.12281       -1.23728
H         -2.70264        3.76827       -1.92365
H         -2.33366        5.40120       -1.37672
H         -4.61332        4.85688       -0.37819
H         -4.48202        4.58561        1.34621
H         -4.27247        0.70357        0.25136
C         -4.98340        2.77926        0.23136
C         -4.47499        1.36554        2.30030
H         -2.18317        4.55929        0.99225
H         -5.97243        2.82316        0.71068
H         -5.17629        2.57703       -0.83257
H         -3.75925        0.67139        2.74601
H         -4.43122        2.29296        2.87321
H         -5.47752        0.95060        2.42901
C         -0.95859       -4.08970        0.83146
C         -1.89285       -3.09262        1.21366
C         -1.50331       -1.76470        1.13589
C         -0.28015       -1.41899        0.62083
C          0.56934       -2.37256        0.12375
C          0.24793       -3.71738        0.18610
O         -1.20849       -5.45661        1.12517
C         -3.30882       -3.42958        1.70682
H         -2.15613       -0.97629        1.46959
H          1.49043       -2.04946       -0.32726
C          1.20658       -4.75063       -0.42542
C          4.35807        1.15982       -0.97193
C          3.24831        1.72466       -1.65000
C          1.97980        1.47339       -1.15463
C          1.78742        0.63179       -0.09035
C          2.85029        0.00201        0.50448
C          4.14641        0.21502        0.06418
O          5.67742        1.56437       -1.30843
C          3.39939        2.60210       -2.90278
H          1.11612        1.93144       -1.60455
H          2.65299       -0.66571        1.32493
C          5.29989       -0.55624        0.72553
C         -3.81068       -4.75773        1.11092
C         -3.30684       -3.50463        3.24091
C         -4.30725       -2.33812        1.26115
C          1.99790       -4.13316       -1.60098
C          2.20191       -5.21990        0.64609
C          0.42989       -5.95453       -0.98902
C         -0.75619       -5.86090        2.41113
H         -3.20845       -5.59766        1.44734
H         -4.84172       -4.95418        1.40393
H         -3.76644       -4.73016        0.02268
H         -4.30095       -3.73684        3.62203
H         -2.62180       -4.27138        3.59604
H         -2.99305       -2.55449        3.67273
H         -4.24135       -2.16767        0.18682
H         -5.33127       -2.63002        1.49284
H         -4.12148       -1.39493        1.76947
H          2.58017       -4.89525       -2.11834
H          1.32281       -3.67826       -2.32542
H          2.69847       -3.37221       -1.26108
H          2.91593       -5.93093        0.23130
H          2.76041       -4.37621        1.05012
H          1.68916       -5.70404        1.47376
H          1.10069       -6.65880       -1.48038
H         -0.09245       -6.49227       -0.20129
H         -0.31066       -5.62593       -1.71744
H         -0.09878       -6.72440        2.30972
H         -0.21652       -5.04735        2.89753
H         -1.60723       -6.15003        3.02722
C          6.14027        2.69534       -0.58125
C          3.53342        4.07337       -2.48277
C          4.62177        2.17322       -3.73459
C          2.16092        2.46036       -3.81801
C          5.82613        0.24741        1.92411
C          4.81850       -1.93588        1.22870
C          6.43790       -0.82092       -0.27724
H          4.40660        4.22568       -1.85293
H          3.62981        4.72072       -3.35404
H          2.65782        4.39428       -1.91885
H          5.54765        2.31932       -3.18387
H          4.55374        1.11867       -3.99972
H          4.69158        2.75109       -4.65580
H          1.95220        1.41164       -4.02800
H          1.27307        2.90184       -3.36788
H          2.32195        2.96699       -4.76921
H          6.64088       -0.27935        2.42026
H          6.19580        1.22167        1.61329
H          5.03481        0.41122        2.65529
H          4.11450       -1.84307        2.05422
H          4.33703       -2.49222        0.42551
H          5.65750       -2.53028        1.58982
H          7.22428       -1.42617        0.17306
H          6.89163        0.10669       -0.61702
H          6.06217       -1.34944       -1.15277
H          7.03723        2.42865       -0.02254
H          6.39698        3.49593       -1.27476
H          5.37179        3.04432        0.10964
