111
-148.55596873
P         -2.24738        2.23758        1.29455
P          0.08417        0.24970        0.46753
C         -1.19039        1.51659        2.57061
C         -0.21071        0.61793        2.21076
C         -2.37648        4.07399        1.45400
C         -1.61116        4.75704        0.34128
C         -1.39156        1.82654        3.90014
H         -2.15803        2.53473        4.17086
C         -0.61507        1.22021        4.87254
H         -0.77103        1.45986        5.91169
C          0.35102        0.30023        4.51275
H          0.94929       -0.17949        5.26981
C          0.55110       -0.00446        3.17818
H          1.29533       -0.72767        2.88272
Pd        -1.52853        1.42833       -0.73656
Cl        -3.39220        2.20869       -1.70901
Cl        -0.73975        0.46628       -2.60794
C         -3.89648        4.32150        1.42500
C         -4.02799        1.76522        1.50524
H         -1.69094        5.84457        0.41030
H         -0.55136        4.49127        0.36663
H         -2.00056        4.45792       -0.63408
H         -4.19687        4.54432        0.39185
H         -4.14977        5.22111        2.00629
H         -4.37934        1.47043        0.50760
C         -4.69053        3.08683        1.93654
C         -4.20482        0.62803        2.49019
H         -1.95970        4.33315        2.43597
H         -4.74367        3.11482        3.03351
H         -5.73481        3.12122        1.59072
H         -3.62791       -0.25031        2.19458
H         -3.86451        0.91841        3.48513
H         -5.25314        0.33277        2.57508
C         -1.13676       -4.06160       -0.33268
C         -2.12334       -3.05925       -0.14814
C         -1.70220       -1.76959        0.12874
C         -0.37060       -1.44653        0.13175
C          0.58329       -2.38691       -0.15614
C          0.23129       -3.69854       -0.42834
O         -1.51449       -5.42974       -0.38301
C         -3.63016       -3.34605       -0.24083
H         -2.41584       -0.99236        0.33945
H          1.61447       -2.08017       -0.16228
C          1.32981       -4.70687       -0.79983
C          4.42956        0.95326       -0.75054
C          4.02542        1.22669        0.58068
C          2.70178        1.00730        0.92313
C          1.78221        0.60009       -0.00948
C          2.14983        0.45013       -1.32118
C          3.45439        0.65497       -1.73518
O          5.80927        0.94527       -1.08788
C          5.00711        1.71627        1.65698
H          2.37323        1.14761        1.93653
H          1.38767        0.17832       -2.02836
C          3.79382        0.53592       -3.22960
C         -3.91657       -4.49414       -1.22562
C         -4.16925       -3.69763        1.15366
C         -4.38618       -2.10393       -0.76780
C          1.87629       -5.35714        0.47977
C          0.79156       -5.78757       -1.75528
C          2.49191       -3.99918       -1.53287
C         -1.56181       -6.06206        0.88970
H         -3.48121       -5.42930       -0.88241
H         -4.98834       -4.65270       -1.34222
H         -3.49762       -4.27091       -2.20625
H         -5.24111       -3.89111        1.12043
H         -3.67991       -4.58298        1.55303
H         -3.99538       -2.87950        1.85210
H         -5.43068       -2.34178       -0.96732
H         -4.37751       -1.28839       -0.04688
H         -3.94138       -1.74425       -1.69534
H          2.28756       -4.60266        1.15002
H          1.09273       -5.88596        1.01756
H          2.66677       -6.07066        0.24845
H          1.58693       -6.46108       -2.07346
H          0.02172       -6.38999       -1.27946
H          0.35698       -5.33137       -2.64411
H          3.03315       -3.32047       -0.87532
H          3.21352       -4.72503       -1.90703
H          2.11805       -3.43007       -2.38327
H         -1.28799       -5.35675        1.67536
H         -2.56772       -6.43886        1.07404
H         -0.87299       -6.90656        0.90379
C          6.43052       -0.32695       -0.95418
C          6.10811        2.59945        1.04205
C          4.27673        2.57710        2.71297
C          5.63351        0.50375        2.36207
C          2.58371        0.95062       -4.09779
C          4.95819        1.46845       -3.61012
C          4.15367       -0.92095       -3.55642
H          6.72405        2.03729        0.34448
H          5.67015        3.43744        0.50081
H          6.76585        2.99983        1.81312
H          3.58854        1.98309        3.31260
H          4.98911        3.03130        3.40134
H          3.71367        3.37945        2.23690
H          6.32689        0.82013        3.14091
H          4.86340       -0.11269        2.82534
H          6.17967       -0.12152        1.65988
H          1.76234        0.24101       -4.01167
H          2.21718        1.93476       -3.80735
H          2.85935        0.99333       -5.15115
H          4.72788        2.49878       -3.34121
H          5.87531        1.18759       -3.09847
H          5.15476        1.43309       -4.68137
H          3.31531       -1.58092       -3.33763
H          5.00390       -1.25967       -2.96927
H          4.40495       -1.03424       -4.61066
H          6.82906       -0.64302       -1.91805
H          7.25949       -0.25606       -0.25017
H          5.71223       -1.06617       -0.59717
