111
-148.55424035
P         -2.21458        2.52138        0.19499
P         -0.20958        0.08629        0.49797
C         -1.83608        1.86956        1.84027
C         -0.99800        0.78363        1.96221
C         -1.77937        4.31399        0.08505
C         -0.59792        4.51350       -0.83963
C         -2.37592        2.45433        2.96755
H         -3.01490        3.31642        2.86503
C         -2.08581        1.93522        4.21763
H         -2.50859        2.38909        5.09902
C         -1.25525        0.83720        4.33669
H         -1.02890        0.43342        5.30977
C         -0.70605        0.26146        3.20483
H         -0.04306       -0.58646        3.27984
Pd        -1.21110        1.10679       -1.32964
Cl        -2.48050        2.04515       -2.91860
Cl        -0.23329       -0.51689       -2.54594
C         -3.08881        4.96814       -0.39688
C         -4.03272        2.60551       -0.14930
H         -0.82553        4.14128       -1.84070
H         -0.33495        5.57014       -0.93028
H          0.28254        3.97350       -0.48168
H         -3.04091        5.08849       -1.48787
H         -3.18025        5.98732        0.00813
H         -4.15689        2.28014       -1.19048
C         -4.33313        4.11035       -0.02862
C         -4.83278        1.71562        0.77824
H         -1.53833        4.63584        1.10677
H         -4.63987        4.32970        1.00327
H         -5.19623        4.37968       -0.65637
H         -4.51198        0.67419        0.70095
H         -4.70722        2.01962        1.81813
H         -5.90022        1.75935        0.55020
C         -0.94588       -4.37924        0.04429
C          0.38691       -3.89895        0.11594
C          0.58555       -2.53644        0.25852
C         -0.47334       -1.67743        0.38882
C         -1.76068       -2.14501        0.41762
C         -2.03040       -3.49819        0.29082
O         -1.19330       -5.73209       -0.31045
C          1.60946       -4.82130       -0.01055
H          1.57825       -2.12300        0.25034
H         -2.55818       -1.42965        0.52780
C         -3.48759       -3.97688        0.38438
C          4.21266        1.19138        0.34909
C          3.40287        1.67053        1.41358
C          2.06930        1.29762        1.44171
C          1.51890        0.55785        0.42740
C          2.26441        0.22074       -0.67140
C          3.60573        0.54690       -0.76095
O          5.62565        1.28630        0.43084
C          3.91398        2.59474        2.53150
H          1.44289        1.58114        2.26954
H          1.77456       -0.29842       -1.47612
C          4.34211        0.19923       -2.06543
C          2.82242       -4.23092        0.74491
C          1.32589       -6.20352        0.60459
C          1.98346       -4.96634       -1.49360
C         -4.29933       -3.06594        1.33396
C         -4.12880       -3.92444       -1.01074
C         -3.57017       -5.40383        0.95608
C         -1.35431       -5.94378       -1.70755
H          2.55967       -3.99393        1.77554
H          3.64836       -4.94158        0.76534
H          3.19368       -3.32506        0.26783
H          1.02233       -6.10484        1.64626
H          0.52977       -6.71870        0.07288
H          2.21111       -6.83795        0.56757
H          2.19471       -3.99242       -1.93413
H          2.86778       -5.59149       -1.61443
H          1.17393       -5.41648       -2.06257
H         -3.80359       -2.97331        2.29996
H         -4.43292       -2.06782        0.91979
H         -5.29442       -3.47553        1.50616
H         -3.60199       -4.56714       -1.71182
H         -5.16931       -4.24607       -0.97497
H         -4.10202       -2.91019       -1.40857
H         -3.08584       -6.12352        0.30118
H         -3.08149       -5.45612        1.92841
H         -4.60658       -5.71693        1.07990
H         -2.34711       -6.34713       -1.90579
H         -1.22679       -5.00649       -2.25082
H         -0.61814       -6.66893       -2.05402
C          6.21411        0.16457        1.06782
C          4.02817        1.79814        3.84158
C          5.27598        3.22480        2.19239
C          2.91569        3.75713        2.73126
C          3.48742        0.64661       -3.27249
C          5.69756        0.91711       -2.18307
C          4.55694       -1.32173       -2.13758
H          4.73668        0.97795        3.74243
H          4.36595        2.43673        4.65739
H          3.06540        1.37349        4.12446
H          6.05550        2.46901        2.13146
H          5.23339        3.73873        1.23274
H          5.57525        3.94642        2.95217
H          2.75594        4.29165        1.79521
H          1.94872        3.40517        3.08693
H          3.29112        4.46957        3.46538
H          3.24777        1.70715       -3.20183
H          4.02164        0.48407       -4.20816
H          2.55163        0.09391       -3.33483
H          5.57392        1.99305       -2.06507
H          6.39216        0.57563       -1.41931
H          6.15759        0.73152       -3.15336
H          3.60483       -1.84998       -2.10321
H          5.16255       -1.67359       -1.30441
H          5.06181       -1.60076       -3.06200
H          5.97472       -0.74511        0.51922
H          7.29619        0.29420        1.09672
H          5.83553        0.07094        2.08437
