105
-153.06609880
Cl         0.07126        2.03028        3.04145
Pd        -0.49318        1.29734        0.98428
P         -1.09168        0.49716       -1.14588
N         -0.68052       -0.99612       -1.98508
C          0.20871       -2.00918       -1.63212
C          0.32956       -2.48983       -0.30400
C          1.27518       -3.49688       -0.01871
C          1.38117       -4.01772        1.39524
C          2.19595       -5.31227        1.54340
C          3.46908       -5.25980        0.69415
C          3.11979       -5.07650       -0.78999
C          2.07417       -4.01906       -1.03978
C          1.89728       -3.56848       -2.34189
C          0.98087       -2.59321       -2.63540
H          0.87024       -2.24014       -3.64585
H          2.50424       -3.98869       -3.12598
H          4.02089       -4.82596       -1.36450
H          4.09381       -4.42166        1.02782
H          2.43969       -5.50229        2.59822
H          1.82752       -3.23307        2.01692
C         -0.67048       -2.12062        0.72654
C         -0.24835       -1.53417        1.95123
C         -1.18182       -1.40531        2.98419
C         -2.47936       -1.81491        2.81902
C         -2.91360       -2.37816        1.62510
C         -4.34765       -2.84347        1.53996
C         -4.80925       -3.21810        0.12229
C         -3.72503       -4.01099       -0.61179
C         -2.43084       -3.19125       -0.71821
C         -2.00839       -2.53270        0.57296
H         -1.61356       -3.82866       -1.07805
H         -4.07476       -4.32220       -1.60637
H         -5.03371       -2.30627       -0.44444
H         -4.99710       -2.06399        1.95765
H         -3.18299       -1.70276        3.62653
H         -0.87174       -0.95185        3.90926
N          1.04593       -1.02423        2.13327
P          1.59338        0.19380        0.98311
C          2.60755       -0.36972       -0.37136
C          2.42101        0.19692       -1.60733
C          3.24306       -0.16727       -2.65786
C          4.25897       -1.09514       -2.46835
C          4.45215       -1.62767       -1.20004
C          3.62749       -1.26284       -0.15096
H          3.77211       -1.66838        0.83779
H          5.24978       -2.33268       -1.03979
C          5.14692       -1.48703       -3.59705
H          3.09647        0.26489       -3.63283
H          1.62738        0.91172       -1.74332
C          2.53808        1.50610        1.76460
C          3.26155        1.25917        2.90639
C          3.99187        2.27951        3.48840
C          3.99954        3.55098        2.93020
C          3.27865        3.77328        1.76459
C          2.54986        2.75195        1.18262
H          1.98562        2.92190        0.27853
H          3.28962        4.75192        1.31604
C          4.80008        4.64532        3.54583
H          4.56153        2.09350        4.38283
H          3.25932        0.27022        3.33512
H          1.19968       -0.58894        3.03363
H         -0.94040       -0.89410       -2.95809
C         -0.61080        1.89561       -2.17290
C         -0.88880        3.17362       -1.75034
C         -0.50983        4.25661       -2.51999
C          0.15565        4.06805       -3.72324
C          0.41239        2.77102       -4.14598
C          0.02951        1.69045       -3.37290
H          0.24242        0.68640       -3.69907
H          0.91546        2.61261       -5.08463
C          0.54630        5.23281       -4.56479
H         -0.73038        5.25740       -2.18994
H         -1.40899        3.31679       -0.81770
C         -2.88866        0.51503       -1.10090
C         -3.55620        0.77112       -2.27526
C         -4.93969        0.78510       -2.29353
C         -5.66349        0.55384       -1.13197
C         -4.97166        0.28868        0.04120
C         -3.58972        0.26006        0.05216
H         -3.05107        0.05323        0.96268
H         -5.52295        0.10639        0.94762
C         -7.15222        0.54579       -1.15108
H         -5.46574        0.97960       -3.21250
H         -2.99151        0.96085       -3.17480
Cl        -2.33893        2.58641        1.09081
H          2.76176       -6.02601       -1.20551
H          1.58387       -6.16554        1.22520
H          4.07862       -6.16183        0.84637
H          0.36895       -4.16563        1.79229
H         -3.52250       -4.94094       -0.06580
H         -2.55303       -2.41134       -1.47869
H         -4.46879       -3.70755        2.20420
H         -5.75167       -3.78298        0.15368
H          5.50910       -2.50896       -3.47566
H          4.61766       -1.43547       -4.54963
H          6.01321       -0.82678       -3.65619
H          5.80825        4.66925        3.12996
H          4.33886        5.61774        3.36773
H          4.88376        4.51246        4.62534
H          0.77277        6.10454       -3.94925
H          1.43281        5.00919       -5.15993
H         -0.25904        5.50370       -5.24887
H         -7.55921        0.88339       -0.19692
H         -7.53997        1.20610       -1.92801
H         -7.53151       -0.45902       -1.34236
