171
-217.83763603
P         -1.47707        0.31427       -0.42170
P          1.70067       -0.63010       -0.15135
C         -0.63057        1.15043       -1.77274
C          1.04848       -1.60668       -1.52873
C          0.14141        0.42425       -2.66922
C          0.82136        1.10642       -3.69680
C          0.69012        2.48184       -3.79793
C         -0.07949        3.18744       -2.89813
C         -0.73578        2.51520       -1.88646
C          1.24290       -2.96684       -1.46958
C          0.65968       -3.80206       -2.40186
C         -0.15356       -3.26938       -3.37826
C         -0.37083       -1.90485       -3.45763
C          0.27029       -1.04982       -2.54012
Cl         1.22185       -0.60873        3.09137
Cl        -1.90200       -1.33313        2.46039
C         -1.30312       -1.38180       -4.49455
C          1.66861        0.36156       -4.66955
H         -0.16586        4.25860       -2.98079
H         -1.33215        3.06285       -1.17763
H          1.85497       -3.38402       -0.68754
H          0.82310       -4.86632       -2.35217
H          1.20007        3.00171       -4.59106
H         -0.63501       -3.91613       -4.09239
C         -4.16374       -3.00533       -1.93945
C         -3.12928       -3.31543       -1.06602
C         -2.32650       -2.27533       -0.61789
C         -2.55810       -0.98407       -1.02294
C         -3.58092       -0.69756       -1.89243
C         -4.40631       -1.70663       -2.37280
H         -4.79944       -3.80113       -2.27897
H         -1.50950       -2.46935        0.05394
H         -3.73739        0.31996       -2.20213
C         -3.82077        3.53032        1.80482
C         -2.91816        2.76031        2.52517
C         -2.22592        1.76676        1.84794
C         -2.43398        1.54247        0.50740
C         -3.34465        2.30817       -0.18065
C         -4.05231        3.32246        0.45108
H         -4.35019        4.31115        2.31755
H         -1.51751        1.16147        2.37957
H         -3.47697        2.14480       -1.23601
C          4.82023       -2.98512        2.15145
C          5.22470       -1.86764        1.42881
C          4.25754       -1.16380        0.72304
C          2.94418       -1.56036        0.74995
C          2.56256       -2.66256        1.47271
C          3.49385       -3.39991        2.18992
H          5.55367       -3.54136        2.70253
H          4.52952       -0.29289        0.15308
H          1.52010       -2.93396        1.50342
C          3.09705        3.64448       -0.72503
C          2.08703        3.38196        0.19271
C          1.65968        2.06852        0.32352
C          2.21876        1.06682       -0.43476
C          3.21863        1.34375       -1.33412
C          3.68253        2.64416       -1.49385
H          3.44705        4.65270       -0.83295
H          0.89160        1.82720        1.03697
H          3.65025        0.53644       -1.90174
Pd        -0.13601       -0.56657        1.29470
C         -4.17067       -5.21889        0.18351
C         -2.92223       -4.76102       -0.59181
C         -1.69842       -4.88450        0.33915
C         -2.70223       -5.67584       -1.81010
H         -5.05865       -5.19431       -0.44711
H         -4.04993       -6.23747        0.55183
H         -4.35005       -4.56872        1.03960
H         -0.78720       -4.56633       -0.16580
H         -1.82447       -4.27901        1.23652
H         -1.55570       -5.91718        0.65681
H         -3.56396       -5.66493       -2.47626
H         -1.83344       -5.35272       -2.38182
H         -2.53540       -6.70673       -1.49829
C         -6.23999       -2.60981       -3.89007
C         -5.58675       -1.35018       -3.28870
C         -5.10586       -0.45921       -4.45100
C         -6.63954       -0.59196       -2.46130
H         -7.03955       -2.33889       -4.57951
H         -5.51035       -3.20139       -4.44297
H         -6.67799       -3.23696       -3.11404
H         -4.34265       -0.96796       -5.03851
H         -5.93192       -0.21380       -5.11829
H         -4.68562        0.47901       -4.09166
H         -6.21942        0.31826       -2.03559
H         -7.49538       -0.31332       -3.07582
H         -6.99955       -1.20846       -1.63787
C         -1.68484        2.03859        4.63377
C         -2.70548        3.02089        4.02358
C         -4.04499        2.84881        4.76295
C         -2.18115        4.45426        4.22254
H         -2.01797        1.00686        4.52292
H         -0.70914        2.13826        4.15928
H         -1.55274        2.22961        5.69848
H         -3.92192        3.00417        5.83462
H         -4.78917        3.56004        4.40667
H         -4.44092        1.84496        4.61041
H         -1.23530        4.59325        3.70053
H         -2.88628        5.19119        3.83988
H         -2.01655        4.66624        5.27882
C         -5.78153        5.18950        0.51835
C         -5.00386        4.20173       -0.37244
C         -6.02042        3.31067       -1.11124
C         -4.17968        5.00392       -1.39629
H         -6.36323        4.66058        1.27316
H         -5.10637        5.88081        1.02224
H         -6.47420        5.78419       -0.07711
H         -6.57320        2.69032       -0.40603
H         -6.73873        3.91502       -1.66497
H         -5.52602        2.65199       -1.82375
H         -4.82106        5.65390       -1.99116
H         -3.44027        5.62640       -0.89254
H         -3.64829        4.34205       -2.07953
C          7.58996       -2.22765        2.30355
C          6.68448       -1.39419        1.37640
C          6.75996        0.07913        1.82183
C          7.20375       -1.52683       -0.06650
H          8.61643       -1.86248        2.27136
H          7.25057       -2.16951        3.33760
H          7.60501       -3.27475        2.00184
H          6.36362        0.19633        2.83018
H          7.79009        0.43492        1.82006
H          6.18537        0.72597        1.16024
H          7.15822       -2.56399       -0.39810
H          6.60722       -0.93092       -0.75578
H          8.23817       -1.19215       -0.14236
C          4.18366       -5.32519        3.70634
C          3.01340       -4.60461        3.01075
C          2.30589       -5.60694        2.07882
C          2.02663       -4.11482        4.08745
H          4.90806       -5.68928        2.97799
H          4.69566       -4.66098        4.40231
H          3.82595       -6.18392        4.27433
H          1.42947       -5.16219        1.60892
H          2.97823       -5.93761        1.28742
H          1.97528       -6.48644        2.63100
H          2.50317       -3.38566        4.74215
H          1.15619       -3.63732        3.63885
H          1.67419       -4.94322        4.70149
C         -0.03210        4.58955        0.80027
C          1.47398        4.46815        1.09066
C          2.12715        5.84262        0.85090
C          1.68407        4.07890        2.56636
H         -0.20184        4.86249       -0.24057
H         -0.54629        3.64986        0.99397
H         -0.49134        5.35515        1.42500
H          1.68686        6.59807        1.50165
H          3.19643        5.81059        1.05926
H          1.98344        6.17099       -0.17835
H          1.28930        4.84528        3.23292
H          1.18407        3.14094        2.80396
H          2.74469        3.95579        2.78421
C          4.52433        2.40949       -3.85208
C          4.86088        2.91983       -2.44034
C          6.10711        2.18660       -1.91177
C          5.17909        4.42472       -2.53487
H          4.34927        1.33474       -3.85274
H          3.63020        2.90086       -4.23349
H          5.34082        2.61205       -4.54503
H          6.97141        2.37467       -2.54843
H          6.35119        2.51870       -0.90288
H          5.94365        1.11031       -1.88001
H          4.31561        4.98539       -2.89268
H          5.47725        4.82595       -1.56648
H          5.99987        4.60306       -3.22955
H         -0.88849       -1.50807       -5.49559
H          1.05376       -0.17221       -5.39451
H         -1.51734       -0.32265       -4.34585
H         -2.25267       -1.91758       -4.45680
H          2.29721       -0.36963       -4.15872
H          2.32281        1.03339       -5.22645
