59
-75.80242255
Cl         1.42226        0.87740        2.36366
P          1.54444        0.01121       -0.75046
P         -1.62074       -0.16812       -0.84876
C          0.65251        0.34884       -2.33243
H          0.45141        1.42040       -2.38398
H          1.32118        0.10781       -3.16431
C         -0.62653       -0.44249       -2.38559
H         -0.41010       -1.51010       -2.46047
H         -1.24108       -0.18065       -3.25235
C          2.32160       -1.67021       -0.81877
H          1.82702       -2.21582       -1.63089
C          3.10483        0.99726       -0.60206
H          3.36658        0.99304        0.46343
C         -2.72835       -1.59204       -0.39466
H         -2.59445       -1.73794        0.68436
C         -2.90358        1.15802       -1.07002
H         -2.97467        1.33570       -2.14995
C          3.80661       -1.39272       -1.15575
H          4.42786       -1.74995       -0.32346
H          4.12206       -1.98578       -2.02675
C          4.09333        0.11849       -1.38686
H          3.99916        0.35651       -2.45614
H          5.13064        0.37210       -1.11791
C         -4.13726       -1.04714       -0.68372
H         -4.42613       -1.33604       -1.70373
H         -4.87539       -1.52525       -0.02173
C         -4.19090        0.49564       -0.54897
H         -4.32048        0.76323        0.50891
H         -5.07097        0.90641       -1.06689
C          2.12500       -2.38680        0.51370
H          1.06867       -2.33100        0.80870
H          2.66106       -1.82937        1.29409
C          2.97943        2.43380       -1.09753
H          3.98331        2.84146       -1.28084
H          2.48736        2.43277       -2.07814
C         -2.42217       -2.89222       -1.13306
H         -3.26280       -3.58610       -0.99300
H         -2.39578       -2.69092       -2.21163
C         -2.56765        2.45810       -0.34593
H         -3.46418        3.09303       -0.31826
H         -2.34440        2.23061        0.70449
C          2.58180       -3.83825        0.48576
H          2.03664       -4.40789       -0.26923
H          2.42695       -4.33434        1.44658
H          3.64276       -3.91838        0.24318
C          2.23215        3.32490       -0.11668
H          2.06449        4.32843       -0.51407
H          2.78418        3.42915        0.81942
H          1.26182        2.90182        0.14236
C         -1.13301       -3.55379       -0.67685
H         -1.16821       -3.79634        0.38700
H         -0.27858       -2.89570       -0.82602
H         -0.93127       -4.48027       -1.21939
C         -1.41844        3.21964       -0.98076
H         -1.19449        4.14687       -0.44830
H         -0.51169        2.61793       -0.98645
H         -1.63893        3.47912       -2.01798
Cl        -1.81027        0.21093        2.30677
Pd        -0.10469        0.24698        0.85084
