58
-89.86465241
P          1.58768        0.21678        0.84195
C          1.91669        1.90980        0.33562
C          3.11412        2.23740       -0.25854
C          3.34383        3.53628       -0.67507
C          2.36812        4.49781       -0.50006
C          1.16304        4.16220        0.08420
C          0.93798        2.86266        0.49974
H         -0.01061        2.58180        0.92488
H          3.85985        1.47336       -0.40632
C          3.08973       -0.77020        0.83001
C          3.15157       -1.95342        0.12967
C          4.31034       -2.70801        0.15322
C          5.39930       -2.27458        0.88319
C          5.33165       -1.09063        1.59050
C          4.17078       -0.33810        1.56519
H          4.10198        0.58681        2.11632
H          2.29758       -2.27946       -0.44138
C          0.88387        0.14054        2.53607
C          0.22890       -1.21845        2.76275
C         -1.25551       -1.25695        2.42687
P         -1.70093       -0.60463        0.75598
C         -3.06544       -1.58572        0.12881
C         -2.84667       -2.90551       -0.19247
C         -3.88664       -3.67313       -0.68636
C         -5.13729       -3.11157       -0.85326
C         -5.35112       -1.78627       -0.52887
C         -4.30941       -1.02114       -0.03620
H         -4.45914        0.01613        0.21625
H         -1.86125       -3.32615       -0.06598
C         -2.12160        1.14919        0.76859
C         -2.23040        1.88209        1.92943
C         -2.51162        3.23456        1.86475
C         -2.68746        3.84638        0.63952
C         -2.58719        3.10828       -0.52244
C         -2.30380        1.75702       -0.45331
H         -2.21064        1.16476       -1.35019
H         -2.09935        1.40310        2.88479
Pd         0.06158       -0.43561       -0.76095
Cl         1.71769       -0.50253       -2.27599
Cl        -1.47636       -0.94353       -2.32808
H         -1.63740       -2.27986        2.47514
H         -1.83361       -0.68549        3.15436
H          0.76324       -1.96803        2.16061
H          0.37144       -1.53844        3.80721
H          1.71666        0.31656        3.22137
H          0.17560        0.95684        2.67771
H          4.28071        3.79488       -1.14053
H          0.39444        4.90717        0.20842
H          4.36282       -3.63124       -0.40011
H          6.18039       -0.75291        2.16224
H         -3.71838       -4.70573       -0.94452
H         -6.32614       -1.34719       -0.66231
H         -2.59284        3.81108        2.77168
H         -2.72314        3.58273       -1.48028
H          2.54447        5.50958       -0.82705
H          6.30322       -2.86139        0.90112
H         -5.94726       -3.70802       -1.24046
H         -2.90458        4.90097        0.59031
