111
-148.55663053
P         -2.64896        1.93806        0.58420
P          0.14340        0.46116        0.49609
C         -1.73835        1.64800        2.12513
C         -0.49738        1.05055        2.07481
C         -3.54825        3.55519        0.60617
C         -2.83977        4.59601       -0.23307
C         -2.27755        2.01187        3.34249
H         -3.25623        2.46141        3.37915
C         -1.56520        1.78194        4.50706
H         -1.98534        2.06552        5.45822
C         -0.31909        1.18705        4.45281
H          0.23355        1.00530        5.35985
C          0.21491        0.81531        3.23208
H          1.17799        0.33299        3.17217
Pd        -1.13816        1.53659       -1.11048
Cl        -2.64866        2.28272       -2.58779
Cl         0.47834        1.05559       -2.59660
C         -4.95242        3.16921        0.10534
C         -4.06336        0.77529        0.31226
H         -1.82303        4.77102        0.12672
H         -2.76772        4.27307       -1.27247
H         -3.37337        5.54924       -0.22116
H         -4.98811        3.30865       -0.98399
H         -5.70900        3.85488        0.51639
H         -3.96614        0.41722       -0.72153
C         -5.29478        1.69084        0.44811
C         -4.02790       -0.38188        1.28678
H         -3.59276        3.87301        1.65556
H         -5.66702        1.63157        1.48014
H         -6.11728        1.32195       -0.18337
H         -4.87972       -1.05095        1.14448
H         -3.11519       -0.96897        1.16918
H         -4.05563       -0.02213        2.31696
C         -1.36065       -3.78264       -0.17901
C         -0.88705       -3.01549       -1.27382
C         -0.44193       -1.72960       -1.02546
C         -0.39515       -1.22885        0.24778
C         -0.74205       -2.00575        1.32137
C         -1.19217       -3.30341        1.14574
O         -2.04154       -5.00707       -0.41133
C         -0.89222       -3.53333       -2.71974
H         -0.13888       -1.08286       -1.83017
H         -0.67289       -1.57607        2.30515
C         -1.52230       -4.15216        2.38316
C          4.66721        0.67453        0.06116
C          4.05661       -0.50404        0.56113
C          2.67639       -0.52985        0.67064
C          1.92253        0.57611        0.37650
C          2.51486        1.75229       -0.00003
C          3.89068        1.84567       -0.13453
O          6.04587        0.66966       -0.28027
C          4.85717       -1.75883        0.94308
H          2.16468       -1.42788        0.97161
H          1.88029        2.59571       -0.21158
C          4.51091        3.19286       -0.53647
C         -0.69198       -5.05879       -2.76552
C         -2.22163       -3.15117       -3.38817
C          0.26567       -2.90197       -3.52665
C         -1.28031       -5.64796        2.11116
C         -0.61357       -3.75803        3.56998
C         -2.98596       -3.91722        2.78652
C         -3.44790       -4.86306       -0.56647
H         -0.63227       -5.41557       -3.79344
H          0.22817       -5.34025       -2.25455
H         -1.51412       -5.58167       -2.28338
H         -2.25147       -3.49321       -4.42228
H         -3.06693       -3.59056       -2.86376
H         -2.35638       -2.06965       -3.38608
H          0.34729       -3.36201       -4.51109
H          0.11339       -1.83541       -3.68479
H          1.21649       -3.03969       -3.01244
H         -1.45045       -6.24219        3.00862
H         -1.94564       -6.02337        1.33772
H         -0.25576       -5.81701        1.78139
H         -0.75315       -4.44122        4.40747
H          0.43682       -3.79199        3.28159
H         -0.83695       -2.75648        3.93456
H         -3.24976       -4.51087        3.66139
H         -3.15589       -2.86831        3.02800
H         -3.66506       -4.18571        1.98071
H         -3.73616       -3.81533       -0.47118
H         -3.74786       -5.23430       -1.54627
H         -3.96193       -5.45179        0.19315
C          6.30738        0.28299       -1.62375
C          4.13815       -2.54312        2.06492
C          4.98669       -2.67158       -0.28590
C          6.25144       -1.38705        1.47935
C          3.66102        4.36681        0.00075
C          5.92267        3.35577        0.05559
C          4.56316        3.28751       -2.06902
H          3.20683       -2.98633        1.71527
H          4.76297       -3.35885        2.42798
H          3.91310       -1.89257        2.90969
H          4.00326       -2.96324       -0.65413
H          5.50742       -2.16909       -1.09743
H          5.53892       -3.57882       -0.04219
H          6.79395       -2.27307        1.80821
H          6.85276       -0.89788        0.71725
H          6.16778       -0.70660        2.32607
H          4.16367        5.31837       -0.17101
H          2.69284        4.42376       -0.49437
H          3.49385        4.26540        1.07277
H          6.60813        2.61071       -0.34013
H          6.33422        4.33763       -0.17695
H          5.89920        3.24560        1.13922
H          3.56356        3.19893       -2.49399
H          5.17282        2.49312       -2.49260
H          4.98317        4.24109       -2.38780
H          6.94879       -0.59809       -1.63292
H          5.37463        0.05988       -2.14336
H          6.82847        1.08804       -2.14159
