59
-75.80762500
Cl         1.47593        0.68895        2.36080
P          1.56690       -0.09033       -0.76011
P         -1.63522       -0.16101       -0.84191
C          0.63944        0.25580       -2.32303
H          0.43055        1.32624       -2.36996
H          1.29039        0.01848       -3.17003
C         -0.63627       -0.53673       -2.35049
H         -0.41930       -1.60697       -2.36357
H         -1.24312       -0.31982       -3.23494
C          2.50142       -1.68124       -0.96700
H          1.86665       -2.38693       -1.51602
C          3.07288        0.98802       -0.64725
H          3.44880        0.86877        0.37640
C         -2.85064       -1.49642       -0.41016
H         -2.82559       -1.57988        0.68342
C         -2.81878        1.23838       -1.14571
H         -2.77675        1.44643       -2.22170
C          3.71359       -1.22473       -1.81193
H          4.59349       -1.82352       -1.53529
H          3.53605       -1.45373       -2.87383
C          4.02613        0.29921       -1.64194
H          3.94231        0.80944       -2.61253
H          5.07095        0.44945       -1.32958
C         -4.19381       -0.90278       -0.86413
H         -4.38139       -1.20414       -1.90406
H         -5.02045       -1.33254       -0.27779
C         -4.18735        0.64433       -0.76412
H         -4.42400        0.94106        0.26698
H         -4.98287        1.08215       -1.38593
C          2.92206       -2.27360        0.37920
H          3.37693       -1.47741        0.98293
H          3.72835       -3.00154        0.21163
C          2.81762        2.46718       -0.92675
H          3.76888        2.95122       -1.18841
H          2.19408        2.56172       -1.82404
C         -2.52881       -2.84746       -1.03786
H         -3.38912       -3.51840       -0.90605
H         -2.42867       -2.72093       -2.12349
C         -2.46953        2.49389       -0.35315
H         -3.32631        3.18178       -0.37676
H         -2.34748        2.22124        0.70333
C          1.79651       -2.94098        1.15298
H          2.13886       -3.33217        2.11379
H          1.37626       -3.77856        0.59374
H          0.98417       -2.24576        1.36190
C          2.18506        3.19104        0.25256
H          1.26715        2.70072        0.57647
H          1.94310        4.23004        0.01793
H          2.85403        3.19625        1.11525
C         -1.28065       -3.48627       -0.45334
H         -0.41547       -2.83364       -0.56891
H         -1.04219       -4.43918       -0.93124
H         -1.39768       -3.67343        0.61588
C         -1.22811        3.20138       -0.86612
H         -0.99213        4.09381       -0.28195
H         -0.36151        2.54372       -0.82517
H         -1.34833        3.51001       -1.90632
Cl        -1.80789        0.18474        2.28330
Pd        -0.08107        0.12033        0.85343
