111
-148.55445966
P         -2.75345        1.88134       -0.33549
P          0.08752        0.60582        0.24443
C         -1.89721        2.25963        1.21714
C         -0.64035        1.74049        1.44256
C         -3.69100        3.33684       -0.98836
C         -2.98629        3.95948       -2.17384
C         -2.49617        3.05197        2.17536
H         -3.48644        3.44052        2.00272
C         -1.82805        3.32802        3.35604
H         -2.29483        3.94661        4.10508
C         -0.56631        2.80964        3.57730
H         -0.04816        3.02196        4.49796
C          0.02795        2.00871        2.61867
H          1.00463        1.58040        2.78184
Pd        -1.15986        0.91930       -1.68960
Cl        -2.61324        0.86689       -3.39145
Cl         0.58347       -0.01390       -2.76486
C         -5.07426        2.73809       -1.30524
C         -4.12720        0.65443       -0.15649
H         -2.88302        3.23817       -2.98583
H         -3.54102        4.81632       -2.56333
H         -1.98227        4.29755       -1.90631
H         -5.09198        2.43236       -2.36047
H         -5.85687        3.50574       -1.20679
H         -3.99144       -0.07245       -0.96866
C         -5.38524        1.50712       -0.40648
C         -4.08913       -0.03286        1.19103
H         -3.76604        4.05602       -0.16289
H         -5.77783        1.84989        0.56078
H         -6.18374        0.89088       -0.84705
H         -4.92033       -0.73228        1.30684
H         -3.15959       -0.58951        1.32352
H         -4.15270        0.69668        2.00047
C         -1.19276       -3.64657        1.25090
C         -0.67051       -3.34598       -0.03295
C         -0.30785       -2.03814       -0.29996
C         -0.38297       -1.07026        0.66510
C         -0.77829       -1.37829        1.93992
C         -1.15538       -2.66733        2.27685
O         -1.78806       -4.91223        1.49717
C         -0.52794       -4.39796       -1.14289
H          0.02979       -1.74485       -1.27852
H         -0.80056       -0.58948        2.67095
C         -1.54403       -2.97614        3.73103
C          4.62341        0.91820        0.00924
C          3.82047        1.83530       -0.71678
C          2.44308        1.74292       -0.59674
C          1.86695        0.74217        0.13999
C          2.63582       -0.20990        0.75711
C          4.01777       -0.17437        0.68028
O          6.02832        1.11105        0.08997
C          4.42285        2.92098       -1.62246
H          1.79624        2.44974       -1.08740
H          2.13542       -0.99206        1.30153
C          4.83055       -1.30668        1.32745
C         -0.24160       -5.79124       -0.55471
C         -1.81590       -4.42782       -1.97971
C          0.65691       -4.04910       -2.07295
C         -1.19628       -4.42958        4.10064
C         -0.76580       -2.06491        4.70752
C         -3.04786       -2.72644        3.92152
C         -3.18175       -4.95816        1.21798
H         -0.07798       -6.52402       -1.34448
H          0.64741       -5.76632        0.07465
H         -1.07084       -6.14329        0.05374
H         -2.00857       -3.45151       -2.42413
H         -1.74118       -5.15708       -2.78587
H         -2.67690       -4.68852       -1.36881
H          0.84436       -4.85645       -2.78038
H          0.46070       -3.15183       -2.65790
H          1.56808       -3.89011       -1.49687
H         -1.41004       -4.62905        5.15040
H         -1.77024       -5.13776        3.50825
H         -0.13920       -4.62734        3.92602
H          0.30599       -2.11997        4.51813
H         -1.07639       -1.02450        4.62314
H         -0.93931       -2.36713        5.74007
H         -3.63894       -3.35024        3.25527
H         -3.35281       -2.94328        4.94495
H         -3.29604       -1.68678        3.70987
H         -3.37753       -5.71159        0.45523
H         -3.72619       -5.23722        2.11995
H         -3.53212       -3.98642        0.86742
C          6.44080        1.91368        1.18881
C          5.74383        2.44455       -2.25383
C          3.46210        3.25154       -2.78757
C          4.65877        4.19743       -0.80152
C          5.14023       -0.94110        2.78678
C          4.03106       -2.63040        1.30822
C          6.13751       -1.56135        0.55485
H          6.13615        3.18617       -2.94919
H          6.50448        2.26876       -1.49719
H          5.59373        1.51349       -2.79935
H          3.93901        3.91820       -3.50564
H          3.16820        2.34488       -3.31592
H          2.56045        3.75167       -2.43742
H          3.72384        4.55898       -0.37403
H          5.34929        4.01621        0.01869
H          5.07493        4.98993       -1.42298
H          5.70879       -1.73206        3.27524
H          5.72000       -0.02320        2.84843
H          4.21941       -0.78996        3.34975
H          4.65091       -3.46176        1.64312
H          3.16664       -2.59063        1.96947
H          3.68209       -2.85768        0.30120
H          5.92781       -1.77752       -0.49219
H          6.68233       -2.40702        0.97375
H          6.79482       -0.69616        0.59127
H          5.57586        2.24155        1.76678
H          7.11017        1.34012        1.82970
H          6.98415        2.78415        0.82155
