111
-148.55631341
P         -2.48851        2.13753        1.08493
P          0.07543        0.35226        0.55674
C         -1.43525        1.63733        2.47418
C         -0.29725        0.89876        2.23225
C         -3.13836        3.85617        1.30956
C         -2.43280        4.84057        0.40256
C         -1.76875        1.98172        3.76852
H         -2.66982        2.54247        3.95563
C         -0.95322        1.59131        4.81685
H         -1.21287        1.85980        5.82785
C          0.19080        0.85662        4.56995
H          0.82418        0.55112        5.38644
C          0.51800        0.50538        3.27250
H          1.39815       -0.08207        3.06192
Pd        -1.31371        1.57887       -0.82322
Cl        -2.88818        2.65976       -1.99868
Cl        -0.03340        0.98467       -2.57292
C         -4.64497        3.69028        1.03715
C         -4.07702        1.19471        0.98554
H         -1.35704        4.85530        0.59343
H         -2.57500        4.57382       -0.64539
H         -2.81618        5.85449        0.53866
H         -4.83641        3.90350       -0.02357
H         -5.22202        4.44067        1.59871
H         -4.19362        0.90640       -0.06782
C         -5.13055        2.25015        1.37014
C         -4.04632       -0.02757        1.87696
H         -2.96893        4.11595        2.36226
H         -5.33322        2.17163        2.44713
H         -6.08844        2.03378        0.87313
H         -3.24496       -0.70882        1.58250
H         -3.87052        0.25469        2.91666
H         -4.99011       -0.57634        1.83631
C         -1.12589       -3.99098       -0.09525
C         -1.21904       -3.43500        1.20916
C         -0.84467       -2.11329        1.38664
C         -0.47609       -1.33495        0.32090
C         -0.51427       -1.83101       -0.95476
C         -0.87182       -3.14345       -1.20594
O         -1.20004       -5.39577       -0.27801
C         -1.71158       -4.21438        2.44023
H         -0.82142       -1.68079        2.37175
H         -0.24978       -1.16981       -1.76216
C         -0.97004       -3.58819       -2.67432
C          4.42555        0.67070       -0.73259
C          3.89645       -0.58056       -0.32503
C          2.56921       -0.63262        0.06519
C          1.80381        0.50238        0.12790
C          2.33983        1.72969       -0.15901
C          3.66083        1.85329       -0.55861
O          5.70157        0.73384       -1.35302
C          4.71404       -1.88140       -0.34778
H          2.10373       -1.57347        0.30345
H          1.69972        2.59255       -0.09087
C          4.22370        3.25310       -0.84938
C         -2.42089       -5.52534        2.05869
C         -0.51800       -4.52403        3.35881
C         -2.73696       -3.35776        3.21545
C         -1.77028       -2.53649       -3.47525
C          0.44459       -3.70157       -3.26706
C         -1.70517       -4.93012       -2.83227
C          0.06490       -6.02883       -0.17711
H         -3.22703       -5.33413        1.35125
H         -1.73095       -6.22700        1.59602
H         -2.84622       -6.01179        2.93621
H         -0.84195       -5.05900        4.25117
H          0.22143       -5.13887        2.84918
H         -0.02409       -3.60686        3.67835
H         -2.29008       -2.44644        3.60931
H         -3.56768       -3.07573        2.56939
H         -3.14398       -3.91101        4.06144
H         -1.25568       -1.57793       -3.51411
H         -1.92199       -2.86403       -4.50332
H         -2.74950       -2.37437       -3.02580
H          0.96989       -2.74895       -3.20478
H          1.03688       -4.44253       -2.73346
H          0.40514       -3.99466       -4.31578
H         -1.84656       -5.17921       -3.88370
H         -1.14595       -5.74247       -2.37429
H         -2.68474       -4.88967       -2.35723
H         -0.05564       -7.10050       -0.33679
H          0.74531       -5.62728       -0.92633
H          0.49118       -5.85785        0.81003
C          5.66405        0.58327       -2.76683
C          4.54080       -2.56495       -1.71287
C          6.20369       -1.60751       -0.07337
C          4.22460       -2.85148        0.75240
C          5.73093        3.32202       -0.54370
C          3.96353        3.60643       -2.32179
C          3.53591        4.31354        0.04032
H          3.49125       -2.79203       -1.89880
H          4.88850       -1.92625       -2.52122
H          5.10093       -3.49866       -1.75618
H          6.32934       -1.08653        0.87519
H          6.77121       -2.53668       -0.02802
H          6.64459       -0.99099       -0.85251
H          4.88323       -3.71659        0.82602
H          4.20918       -2.35900        1.72435
H          3.22478       -3.22931        0.54306
H          5.92689        3.03042        0.48757
H          6.29844        2.65835       -1.19112
H          6.11461        4.33144       -0.68980
H          2.89613        3.58257       -2.54030
H          4.33473        4.60377       -2.55605
H          4.45224        2.90068       -2.98900
H          3.58901        4.03099        1.09140
H          2.48883        4.44720       -0.22726
H          4.01977        5.28373       -0.07031
H          4.63559        0.45863       -3.10833
H          6.10035        1.46281       -3.24000
H          6.25205       -0.28665       -3.05877
