58
-89.86537116
P          1.67305        0.29230        0.77573
C          2.88335        1.54288        0.33983
C          4.19312        1.18858        0.11128
C          5.11668        2.15863       -0.23410
C          4.71931        3.47634       -0.34876
C          3.40312        3.82629       -0.11936
C          2.48153        2.85396        0.22672
H          1.44801        3.10968        0.40109
H          4.48583        0.15467        0.19817
C          2.33799       -1.35749        0.50062
C          2.51165       -1.77409       -0.79959
C          2.98408       -3.04582       -1.06351
C          3.28326       -3.89538       -0.01745
C          3.11728       -3.47282        1.28673
C          2.64539       -2.19886        1.54638
H          2.51951       -1.86197        2.56197
H          2.27073       -1.09554       -1.60212
C          1.25971        0.57329        2.54549
C          0.11358       -0.27254        3.07735
C         -1.25646        0.23678        2.66888
P         -1.68220        0.03033        0.89157
C         -1.93605       -1.71312        0.51654
C         -3.17251       -2.20388        0.16362
C         -3.32199       -3.54612       -0.13443
C         -2.22938       -4.38939       -0.08493
C         -0.98719       -3.89172        0.25379
C         -0.84391       -2.54966        0.55251
H          0.12827       -2.14181        0.76823
H         -4.01380       -1.53464        0.10219
C         -3.16577        1.01846        0.63369
C         -4.32117        0.67707        1.30126
C         -5.46334        1.44088        1.13932
C         -5.43841        2.55007        0.31761
C         -4.27376        2.90036       -0.33575
C         -3.13385        2.13469       -0.17113
H         -2.21888        2.40075       -0.67530
H         -4.32351       -0.17969        1.95662
Pd        -0.07151        0.40349       -0.74979
Cl         1.44875        0.95864       -2.31047
Cl        -1.78203        0.36623       -2.20662
H         -2.04859       -0.27237        3.22338
H         -1.35059        1.30104        2.89373
H          0.23461       -1.31449        2.75787
H          0.16931       -0.30418        4.17674
H          2.18478        0.38804        3.09693
H          1.03772        1.63570        2.66227
H          6.14285        1.88504       -0.41679
H          3.09224        4.85376       -0.21361
H          3.11518       -3.37193       -2.08215
H          3.35470       -4.13534        2.10287
H         -4.28959       -3.93155       -0.41104
H         -0.12795       -4.54171        0.27457
H         -6.36963        1.17132        1.65634
H         -4.25195        3.76778       -0.97482
H          5.43725        4.23278       -0.62090
H          3.64983       -4.88872       -0.21900
H         -2.34456       -5.43479       -0.32065
H         -6.32783        3.14517        0.18900
