87
-129.18738454
P         -1.67690       -0.38513       -0.14414
P          1.57841        0.34796       -0.16510
C         -1.42503        0.92491       -1.36424
C          1.35328       -0.68343       -1.61971
C         -0.46022        0.85713       -2.36714
C         -0.25795        1.98068       -3.19212
C         -1.03937        3.10824       -3.00877
C         -1.99890        3.15333       -2.02157
C         -2.18159        2.06059       -1.19751
C          2.15196       -1.78845       -1.78467
C          1.98873       -2.60391       -2.88689
C          1.01921       -2.30442       -3.82039
C          0.20117       -1.19665       -3.67213
C          0.37369       -0.36053       -2.55095
Cl         1.28609        1.10952        2.94381
Cl        -1.39840       -0.72249        3.08905
H         -2.59522        4.04052       -1.88459
H         -2.91909        2.09679       -0.41300
H          2.90877       -2.01355       -1.05187
H          2.61311       -3.47311       -3.01350
H         -0.88158        3.96221       -3.64553
H          0.88408       -2.94101       -4.67831
C         -0.99369       -4.61496       -1.65682
C         -0.39567       -4.20685       -0.47243
C         -0.63638       -2.91525       -0.02127
C         -1.43950       -2.06063       -0.74094
C         -2.04727       -2.48010       -1.90063
C         -1.82322       -3.76426       -2.36130
H         -0.80339       -5.60899       -2.02412
C          0.52397       -5.10713        0.27448
H         -0.20431       -2.58372        0.90701
H         -2.67508       -1.79560       -2.44881
H         -2.28507       -4.09572       -3.27681
C         -5.76065        0.08304        1.81770
C         -5.55115       -0.91921        0.89127
C         -4.30891       -1.06598        0.30315
C         -3.28735       -0.20947        0.64199
C         -3.49497        0.79025        1.56437
C         -4.73373        0.94602        2.17419
H         -6.72788        0.20063        2.27588
H         -6.35446       -1.58732        0.62709
H         -4.13067       -1.84708       -0.41752
H         -2.68361        1.44750        1.83093
C         -4.95214        2.03492        3.16484
C          5.01774       -1.25911        2.35576
C          5.11413       -0.00484        1.78598
C          4.07731        0.48331        1.01347
C          2.95397       -0.28456        0.81623
C          2.85427       -1.53254        1.38705
C          3.88958       -2.04352        2.15948
H          5.82036       -1.63760        2.96553
H          5.99361        0.59638        1.94867
H          4.13418        1.46518        0.57318
H          1.96417       -2.11896        1.23510
C          3.76181       -3.38242        2.79634
C          2.22420        4.68012       -1.36192
C          2.99813        3.68641       -1.92881
C          2.80943        2.36830       -1.55636
C          1.85694        2.06031       -0.61371
C          1.09163        3.04795       -0.03889
C          1.25474        4.37513       -0.41630
H          2.36768        5.70689       -1.65238
H          3.74384        3.93616       -2.66564
H          3.39100        1.57652       -2.00214
H          0.35589        2.78905        0.70372
C          0.42599        5.44258        0.20631
Pd        -0.06532        0.08125        1.47562
C          0.78388        1.98791       -4.25681
C         -0.84254       -0.91896       -4.69756
H          1.51267        1.19030       -4.10915
H          0.33452        1.85769       -5.24198
H          1.32944        2.93260       -4.25946
H         -0.39291       -0.54599       -5.61860
H         -1.39976       -1.82497       -4.94002
H         -1.56007       -0.17608       -4.34749
H          0.25862       -6.15462        0.12508
H          1.55377       -4.96865       -0.05819
H          0.48661       -4.90489        1.34594
H         -5.15886        2.98078        2.66215
H         -5.79425        1.81019        3.82082
H         -4.07090        2.17235        3.79325
H          3.19937       -3.31399        3.72852
H          3.24052       -4.08024        2.13940
H          4.74021       -3.80823        3.02303
H          0.88797        5.80455        1.12579
H          0.30410        6.29136       -0.46810
H         -0.56963        5.07073        0.45336
