58
-89.86332760
P          1.59261        0.25893        0.87510
C          1.95132        1.97718        0.47169
C          2.02665        2.33747       -0.85420
C          2.27453        3.65147       -1.20327
C          2.45263        4.60013       -0.21642
C          2.39144        4.23478        1.11385
C          2.14330        2.91837        1.45867
H          2.10656        2.62518        2.49486
H          1.90164        1.57970       -1.61034
C          3.05702       -0.75143        0.63661
C          4.29326       -0.15014        0.57397
C          5.42507       -0.92298        0.38608
C          5.30859       -2.29343        0.26200
C          4.06561       -2.89194        0.32516
C          2.93556       -2.11656        0.51393
H          1.95812       -2.57028        0.55372
H          4.36659        0.92158        0.66674
C          1.09567        0.07552        2.64257
C          0.11497       -1.06354        2.87735
C         -1.32859       -0.68738        2.58756
P         -1.71894       -0.48412        0.79338
C         -3.01637       -1.66960        0.41201
C         -2.71342       -2.83460       -0.25472
C         -3.71067       -3.75588       -0.51951
C         -5.00378       -3.50893       -0.10291
C         -5.30050       -2.34731        0.58219
C         -4.30088       -1.42755        0.84467
H         -4.51472       -0.52467        1.39475
H         -1.69915       -3.01481       -0.57383
C         -2.19329        1.21751        0.44304
C         -3.34091        1.52227       -0.25251
C         -3.64036        2.84159       -0.53996
C         -2.78179        3.84684       -0.13945
C         -1.62152        3.53592        0.54113
C         -1.32854        2.21615        0.82968
H         -0.40407        1.95595        1.31441
H         -3.98697        0.72802       -0.58753
Pd         0.05960       -0.45527       -0.71289
Cl         1.72612       -0.62032       -2.21035
Cl        -1.52604       -0.90049       -2.24670
H         -2.01579       -1.45247        2.95853
H         -1.59754        0.24222        3.09317
H          0.40170       -1.93063        2.26756
H          0.19478       -1.40368        3.92177
H          2.02867       -0.07921        3.19105
H          0.67651        1.01644        3.00142
H          2.32931        3.93233       -2.24216
H          2.53758        4.97444        1.88387
H          6.39447       -0.45528        0.33347
H          3.97428       -3.96082        0.22310
H         -3.47768       -4.66350       -1.05167
H         -6.30801       -2.15756        0.91419
H         -4.53883        3.08328       -1.08368
H         -0.93682        4.31526        0.83256
H          2.64491        5.62618       -0.48470
H          6.18912       -2.89678        0.11247
H         -5.78195       -4.22541       -0.30992
H         -3.01221        4.87453       -0.36843
