58
-89.86234264
P          1.75344       -0.18758        0.84341
C          1.85662        1.60099        0.99743
C          0.82578        2.38958        0.54343
C          0.88589        3.76201        0.68861
C          1.98289        4.33939        1.29584
C          3.01169        3.54566        1.76406
C          2.94436        2.17115        1.61901
H          3.73415        1.53874        1.99277
H         -0.03762        1.92991        0.09922
C          3.30431       -0.89129        0.26665
C          3.50353       -2.24992        0.36437
C          4.67588       -2.81001       -0.11166
C          5.63699       -2.00622       -0.69185
C          5.42637       -0.64626       -0.80294
C          4.25364       -0.08971       -0.32549
H          4.06726        0.96672       -0.42948
H          2.73484       -2.87171        0.79526
C          1.32513       -0.86331        2.50665
C         -0.16058       -1.11499        2.71415
C         -1.04434        0.08641        2.38406
P         -1.64323        0.02354        0.64176
C         -2.93340       -1.22309        0.54594
C         -4.24373       -0.83076        0.70065
C         -5.25673       -1.77081        0.63603
C         -4.94855       -3.09897        0.41766
C         -3.63263       -3.48836        0.26428
C         -2.62201       -2.54627        0.33017
H         -1.59257       -2.83858        0.20009
H         -4.46833        0.21096        0.86637
C         -2.30470        1.61218        0.11739
C         -2.66288        2.56894        1.04058
C         -3.14445        3.79197        0.60957
C         -3.26755        4.04720       -0.74206
C         -2.91559        3.08173       -1.66412
C         -2.43474        1.86131       -1.22907
H         -2.16121        1.09142       -1.93164
H         -2.56184        2.36077        2.09330
Pd         0.10867       -0.64075       -0.73573
Cl         1.76115       -0.96427       -2.22567
Cl        -1.47240       -1.01973       -2.29477
H         -1.94192        0.11474        3.00697
H         -0.50973        1.02353        2.54807
H         -0.47992       -1.96897        2.10109
H         -0.32995       -1.43403        3.75465
H          1.90648       -1.77490        2.66102
H          1.69561       -0.13369        3.23004
H          0.07373        4.37584        0.33532
H          3.86497        3.99511        2.24490
H          4.83406       -3.87331       -0.03652
H          6.17005       -0.01986       -1.26750
H         -6.28356       -1.46573        0.75340
H         -3.39233       -4.52417        0.08918
H         -3.42177        4.54502        1.32884
H         -3.01531        3.27712       -2.71913
H          2.03360        5.40994        1.41011
H          6.54873       -2.44214       -1.06664
H         -5.73650       -3.83249        0.36418
H         -3.64218        5.00046       -1.07774
