111
-148.55404730
P         -2.16132        2.43564        0.89757
P         -0.11841        0.02965        0.56892
C         -1.32091        1.76690        2.35228
C         -0.43066        0.72640        2.20500
C         -2.03704        4.28162        0.85049
C         -1.07984        4.73849       -0.22920
C         -1.54825        2.31214        3.59930
H         -2.24667        3.12663        3.70436
C         -0.87596        1.81221        4.70118
H         -1.05302        2.23555        5.67639
C          0.02752        0.77774        4.55032
H          0.55809        0.39439        5.40630
C          0.25500        0.23701        3.29736
H          0.97235       -0.55722        3.16065
Pd        -1.30268        1.34479       -0.93920
Cl        -2.74854        2.50215       -2.20369
Cl        -0.22611        0.29186       -2.60799
C         -3.49773        4.72308        0.64117
C         -3.99908        2.23286        0.94769
H         -1.41374        4.39915       -1.21126
H         -1.00663        5.82797       -0.26376
H         -0.07731        4.33587       -0.06721
H         -3.67143        4.86492       -0.43441
H         -3.67088        5.70800        1.10076
H         -4.29067        1.89229       -0.05492
C         -4.50044        3.66838        1.19016
C         -4.41778        1.22639        1.99821
H         -1.68045        4.59099        1.84162
H         -4.63677        3.81863        2.26992
H         -5.49767        3.80560        0.74508
H         -4.10030        1.54683        2.99188
H         -5.50296        1.10250        2.02232
H         -3.96792        0.24819        1.81122
C         -1.03160       -4.43010        0.25548
C         -1.14518       -3.78441        1.51568
C         -0.85475       -2.43204        1.58849
C         -0.54582       -1.71014        0.46441
C         -0.57722       -2.30462       -0.76977
C         -0.85050       -3.65241       -0.91820
O         -1.01802       -5.84654        0.17861
C         -1.58108       -4.49812        2.80662
H         -0.86375       -1.92755        2.53814
H         -0.38178       -1.69144       -1.63178
C         -0.94972       -4.21028       -2.34793
C          4.08949        1.04043       -0.82956
C          3.60358       -0.28112       -1.00285
C          2.32477       -0.57217       -0.56045
C          1.56802        0.37042        0.08311
C          2.06759        1.62041        0.33988
C          3.34484        1.97409       -0.06323
O          5.29875        1.44140       -1.45715
C          4.40983       -1.37926       -1.71329
H          1.89089       -1.53986       -0.73681
H          1.43444        2.32423        0.85308
C          3.88259        3.36550        0.30511
C         -2.22388       -5.86809        2.52839
C         -0.36312       -4.67953        3.72733
C         -2.64143       -3.64176        3.53424
C          0.45504       -4.27010       -2.97087
C         -1.59101       -5.60799       -2.38845
C         -1.84022       -3.27897       -3.20053
C          0.28628       -6.38935        0.29978
H         -1.50282       -6.56277        2.10404
H         -2.61117       -6.31386        3.44428
H         -3.04800       -5.76965        1.82271
H         -0.64957       -5.16256        4.66119
H          0.40054       -5.29307        3.25319
H          0.08733       -3.71789        3.97141
H         -2.23212       -2.69220        3.87501
H         -3.48233       -3.42928        2.87463
H         -3.02546       -4.16207        4.41134
H          0.41277       -4.65091       -3.99092
H          0.90880       -3.28011       -3.00219
H          1.11273       -4.92012       -2.39674
H         -2.55867       -5.60129       -1.88800
H         -1.74067       -5.94221       -3.41482
H         -0.96379       -6.34405       -1.89123
H         -2.81845       -3.15292       -2.73761
H         -1.39616       -2.29249       -3.32227
H         -1.99061       -3.69134       -4.19782
H          0.23328       -7.47493        0.21485
H          0.92923       -5.99717       -0.48675
H          0.71298       -6.12462        1.26580
C          5.12016        1.98369       -2.75972
C          5.92123       -1.19831       -1.48501
C          4.03594       -2.77474       -1.16247
C          4.09076       -1.34453       -3.21588
C          3.28007        3.84320        1.64654
C          5.41132        3.33958        0.48449
C          3.49382        4.36883       -0.79127
H          6.14859       -1.17927       -0.41970
H          6.48612       -2.01254       -1.93825
H          6.28023       -0.26851       -1.91873
H          4.69186       -3.54143       -1.57426
H          4.13019       -2.80106       -0.07723
H          3.01673       -3.05371       -1.42462
H          3.02519       -1.49646       -3.38644
H          4.36060       -0.38654       -3.65382
H          4.63354       -2.12434       -3.74940
H          3.42558        3.09463        2.42498
H          3.75522        4.76653        1.97710
H          2.21354        4.04607        1.56148
H          5.69721        2.60041        1.23207
H          5.91583        3.08593       -0.44444
H          5.78464        4.31102        0.80760
H          3.92038        4.08915       -1.75141
H          3.84524        5.37072       -0.54600
H          2.41146        4.41013       -0.90990
H          5.51902        2.99745       -2.79175
H          5.66525        1.38070       -3.48568
H          4.06155        1.99980       -3.02239
