111
-148.55669094
P         -2.16360        2.09018        1.52839
P          0.17528        0.15789        0.58823
C         -1.04921        1.36501        2.75276
C         -0.04623        0.51253        2.34498
C         -2.26361        3.92779        1.69997
C         -1.43005        4.61876        0.64201
C         -1.20647        1.66086        4.09143
H         -1.98510        2.34055        4.39807
C         -0.36365        1.08603        5.02671
H         -0.48619        1.31365        6.07303
C          0.63225        0.21959        4.61941
H          1.28724       -0.23097        5.34690
C          0.79172       -0.06648        3.27523
H          1.56568       -0.74056        2.94686
Pd        -1.43612        1.40664       -0.54134
Cl        -3.22695        2.34272       -1.50412
Cl        -0.51371        0.62941       -2.43641
C         -3.77588        4.19736        1.59915
C         -3.94502        1.64307        1.77736
H         -0.37871        4.32900        0.71287
H         -1.77691        4.35277       -0.35838
H         -1.48979        5.70582        0.73338
H         -4.03003        4.38675        0.54699
H         -4.03785        5.12090        2.13773
H         -4.29607        1.28194        0.80161
C         -4.60656        2.99192        2.12212
C         -4.12241        0.58047        2.84296
H         -1.89569        4.16695        2.70626
H         -4.70878        3.06682        3.21334
H         -5.63383        3.02469        1.72887
H         -3.52943       -0.30976        2.62597
H         -3.80131        0.95026        3.81772
H         -5.16822        0.27864        2.93591
C         -1.31296       -4.01177       -0.48395
C         -2.21370       -3.03269        0.00956
C         -1.70299       -1.79648        0.37146
C         -0.38347       -1.48903        0.16094
C          0.45675       -2.38389       -0.44885
C          0.01773       -3.64577       -0.80993
O         -1.72510       -5.36486       -0.60958
C         -3.72348       -3.28433        0.14646
H         -2.33664       -1.04476        0.80892
H          1.46806       -2.08059       -0.64900
C          0.98665       -4.60367       -1.52000
C          4.37239        0.97523       -1.00073
C          4.17497       -0.06048       -0.04924
C          2.88914       -0.29048        0.41184
C          1.84250        0.50848        0.02734
C          2.05775        1.59477       -0.78042
C          3.31563        1.87975       -1.28419
O          5.58902        1.05392       -1.72600
C          5.30826       -0.93610        0.51285
H          2.69270       -1.11913        1.07012
H          1.21770        2.21463       -1.04330
C          3.47634        3.15370       -2.13019
C         -4.51180       -1.99224       -0.16737
C         -4.20864       -4.35124       -0.85216
C         -4.03643       -3.72611        1.58359
C          2.00697       -3.81503       -2.37233
C          1.74970       -5.42378       -0.46912
C          0.23232       -5.54354       -2.47796
C         -1.55637       -6.12618        0.57935
H         -5.58319       -2.18872       -0.19766
H         -4.34909       -1.22610        0.58714
H         -4.21766       -1.58490       -1.13437
H         -3.76181       -5.32055       -0.64662
H         -5.29069       -4.47072       -0.80368
H         -3.94328       -4.07095       -1.87099
H         -5.10388       -3.90160        1.71461
H         -3.51009       -4.64465        1.83471
H         -3.72962       -2.96260        2.29791
H          1.49788       -3.12881       -3.04860
H          2.69191       -3.23895       -1.75270
H          2.61318       -4.49124       -2.97465
H          2.30199       -4.76911        0.20464
H          1.06833       -6.02076        0.13293
H          2.46137       -6.09982       -0.94236
H         -0.35224       -4.97001       -3.19650
H          0.92466       -6.17725       -3.03161
H         -0.44963       -6.19545       -1.93728
H         -1.06505       -5.52737        1.34731
H         -2.52769       -6.45750        0.94587
H         -0.95163       -7.00710        0.36392
C          5.57385        0.26943       -2.90714
C          6.70187       -0.36419        0.19956
C          5.18551       -1.00542        2.05113
C          5.19459       -2.35671       -0.06477
C          2.77604        4.33450       -1.42126
C          4.95103        3.55063       -2.31561
C          2.82343        2.93616       -3.50554
H          6.90379       -0.38001       -0.86876
H          6.77855        0.66830        0.53861
H          7.48377       -0.94284        0.69086
H          4.27010       -1.50575        2.36232
H          6.01976       -1.55778        2.48290
H          5.18583       -0.00459        2.48202
H          5.98395       -2.99938        0.32420
H          4.23799       -2.80759        0.19659
H          5.27359       -2.34813       -1.15024
H          2.94602        5.26648       -1.95973
H          1.69882        4.18929       -1.35967
H          3.15894        4.45680       -0.40848
H          5.03888        4.50381       -2.83646
H          5.44836        3.64271       -1.35071
H          5.48917        2.80683       -2.89840
H          1.76851        2.68457       -3.40021
H          3.30463        2.12314       -4.04546
H          2.89514        3.83475       -4.11762
H          5.39799       -0.77622       -2.65975
H          4.78123        0.60974       -3.57136
H          6.53437        0.36382       -3.41410
