171
-217.83429427
P         -1.72976        0.65844        0.24375
P          1.49067       -0.18714       -0.26199
C         -0.93633        1.90515       -0.79757
C          0.65055       -0.71274       -1.76998
C         -0.21274        1.61374       -1.94809
C          0.47003        2.65668       -2.60195
C          0.37932        3.94473       -2.10229
C         -0.35283        4.21780       -0.96693
C         -0.99961        3.18928       -0.30963
C          0.77488       -1.99741       -2.24029
C          0.12157       -2.38129       -3.39505
C         -0.66860       -1.47462       -4.07036
C         -0.81517       -0.17599       -3.61058
C         -0.12442        0.21875       -2.44923
Cl         2.03933        0.93165        2.73665
Cl        -0.99090        0.20887        3.51306
C         -1.68402        0.78920       -4.33970
C          1.31221        2.40862       -3.80460
H         -0.40962        5.22413       -0.58532
H         -1.54942        3.38225        0.59974
H          1.37197       -2.70923       -1.69750
H          0.22370       -3.38820       -3.76528
H          0.90229        4.73801       -2.60957
H         -1.18230       -1.77479       -4.96782
C         -2.84447       -3.41852       -1.39754
C         -3.53750       -2.29487       -1.82941
C         -3.14440       -1.06158       -1.32742
C         -2.10814       -0.96524       -0.43177
C         -1.44338       -2.09062       -0.00197
C         -1.79429       -3.34389       -0.49107
H         -3.13813       -4.38608       -1.75834
H         -3.66950       -0.16822       -1.61845
H         -0.64561       -1.98487        0.71079
C         -5.66446        2.42068        1.63819
C         -4.85113        1.80177        2.57991
C         -3.64166        1.27534        2.14715
C         -3.27049        1.36859        0.83063
C         -4.08405        1.98706       -0.08648
C         -5.30296        2.52841        0.30022
H         -6.60174        2.83069        1.96427
H         -2.96492        0.80198        2.83437
H         -3.75954        2.05673       -1.11175
C          3.83392       -3.68154        1.50668
C          2.94621       -3.00630        2.33512
C          2.21120       -1.96501        1.78699
C          2.37590       -1.58723        0.47485
C          3.28434       -2.24960       -0.31439
C          4.01521       -3.32323        0.17657
H          4.40628       -4.49470        1.90945
H          1.52553       -1.42819        2.41548
H          3.43208       -1.92623       -1.33011
C          4.62607        2.86507       -1.44445
C          4.45829        1.72445       -2.22018
C          3.48518        0.81193       -1.82934
C          2.72505        1.03576       -0.70743
C          2.90066        2.17201        0.03951
C          3.85294        3.11585       -0.31695
H          5.39065        3.56525       -1.72301
H          3.29964       -0.07465       -2.41018
H          2.30377        2.31566        0.92194
Pd         0.15477        0.47433        1.59569
C         -6.00646       -1.93383       -1.98905
C         -4.75268       -2.37807       -2.76430
C         -4.97488       -3.81103       -3.28505
C         -4.54080       -1.45227       -3.97545
H         -6.17376       -2.57784       -1.12595
H         -5.90180       -0.91215       -1.62600
H         -6.89341       -1.97659       -2.62090
H         -5.82199       -3.84621       -3.97003
H         -4.09829       -4.17130       -3.82339
H         -5.18658       -4.49916       -2.46695
H         -5.38824       -1.50418       -4.65881
H         -4.42781       -0.41383       -3.66743
H         -3.64699       -1.74233       -4.52623
C         -2.12594       -5.48564        0.76067
C         -1.10902       -4.63680       -0.02339
C          0.09034       -4.34218        0.89220
C         -0.59804       -5.43167       -1.23993
H         -2.50401       -4.93414        1.62134
H         -2.97707       -5.75704        0.13706
H         -1.66914       -6.40631        1.12335
H         -0.22532       -3.80099        1.78284
H          0.57030       -5.26572        1.21551
H          0.83886       -3.74733        0.37205
H         -1.41202       -5.70925       -1.90804
H          0.11974       -4.84429       -1.81049
H         -0.10152       -6.34882       -0.92341
C         -5.49093        3.14650        4.59781
C         -5.29912        1.72178        4.04646
C         -4.25600        0.99750        4.92056
C         -6.62723        0.94740        4.13116
H         -5.78989        3.12237        5.64559
H         -4.56398        3.71493        4.52413
H         -6.25895        3.68572        4.04458
H         -4.09502       -0.02336        4.57494
H         -3.30007        1.52052        4.90610
H         -4.58784        0.94625        5.95737
H         -6.96035        0.85618        5.16485
H         -7.41518        1.44885        3.57048
H         -6.51328       -0.05677        3.72316
C         -7.48724        3.76249       -0.13490
C         -6.18615        3.21426       -0.75150
C         -6.55504        2.19548       -1.84614
C         -5.40901        4.38789       -1.37700
H         -7.27429        4.50068        0.63810
H         -8.10025        4.24784       -0.89429
H         -8.08096        2.96134        0.30494
H         -7.09301        1.34979       -1.41843
H         -7.19122        2.65090       -2.60484
H         -5.66631        1.81016       -2.34472
H         -6.01764        4.90969       -2.11529
H         -5.11588        5.10640       -0.61178
H         -4.50370        4.04334       -1.87560
C          1.34484       -3.63480        4.17784
C          2.81051       -3.30972        3.83568
C          3.25827       -2.07020        4.63348
C          3.68357       -4.50715        4.25653
H          1.23001       -3.83093        5.24368
H          0.68253       -2.80877        3.92173
H          1.01024       -4.52035        3.63909
H          2.63381       -1.20718        4.40509
H          3.19702       -2.25200        5.70617
H          4.28823       -1.80870        4.39221
H          3.40240       -5.40768        3.71071
H          4.73933       -4.30689        4.07502
H          3.56691       -4.71546        5.32001
C          4.22142       -4.58326       -1.98032
C          4.99268       -4.04961       -0.75777
C          5.67708       -5.23842       -0.05653
C          6.07862       -3.06054       -1.22051
H          3.77149       -3.77209       -2.55160
H          4.88311       -5.13286       -2.64952
H          3.42222       -5.25529       -1.66778
H          6.35536       -5.75102       -0.73859
H          6.26255       -4.90521        0.80015
H          4.94225       -5.96619        0.28740
H          5.64427       -2.22217       -1.76344
H          6.62205       -2.65811       -0.36587
H          6.79685       -3.54850       -1.87913
C          4.89365        0.26009       -4.25585
C          5.37503        1.46680       -3.42531
C          6.79622        1.17644       -2.91139
C          5.40088        2.70246       -4.34569
H          4.92651       -0.65980       -3.67290
H          3.87311        0.40943       -4.60789
H          5.52812        0.11463       -5.13002
H          7.18949        2.02223       -2.34815
H          6.79761        0.30761       -2.25334
H          7.47803        0.97622       -3.73772
H          5.79237        3.57834       -3.83044
H          6.03222        2.52394       -5.21601
H          4.40008        2.94157       -4.70310
C          5.11003        5.30791       -0.00662
C          4.02918        4.36564        0.55631
C          4.44294        3.93399        1.97559
C          2.69616        5.13420        0.61761
H          6.08179        4.81568       -0.03959
H          4.85486        5.63937       -1.01306
H          5.21198        6.19559        0.61758
H          4.59085        4.80026        2.61999
H          3.68277        3.30281        2.43443
H          5.37400        3.36835        1.94949
H          2.79187        6.03473        1.22380
H          2.37879        5.43189       -0.38134
H          1.90580        4.52323        1.05210
H         -1.08630        1.49099       -4.92193
H          1.42085        1.34286       -4.00853
H         -2.29538        1.36520       -3.64296
H         -2.35720        0.27870       -5.02943
H          2.31196        2.81931       -3.66023
H          0.88138        2.88083       -4.68867
