111
-148.54717015
P         -2.66216        2.23101        0.47388
P          0.00299        0.51333        0.35471
C         -1.55616        2.16197        1.91487
C         -0.37938        1.44983        1.84100
C         -3.61613        3.82355        0.50517
C         -3.58935        4.53326       -0.82922
C         -1.89450        2.79979        3.09225
H         -2.82660        3.33551        3.16112
C         -1.04620        2.73250        4.18414
H         -1.31185        3.23103        5.10206
C          0.13764        2.02544        4.10085
H          0.79704        1.97102        4.95139
C          0.47010        1.37761        2.92499
H          1.38155        0.80569        2.84626
Pd        -1.42084        1.32933       -1.27642
Cl        -2.59917        2.48780       -2.78222
Cl        -0.13517        0.30029       -2.81245
C         -5.02705        3.37070        0.93343
C         -4.05706        1.01874        0.61516
H         -4.06708        3.92180       -1.59617
H         -4.12230        5.48611       -0.78963
H         -2.56541        4.72978       -1.15494
H         -5.77715        4.05312        0.50758
H         -5.13468        3.45720        2.02459
H         -3.97581        0.33926       -0.24456
C         -5.31361        1.90572        0.50299
C         -3.96622        0.24243        1.91073
H         -3.15058        4.45537        1.27326
H         -6.12284        1.47469        1.11017
H         -5.68453        1.89800       -0.53246
H         -4.78187       -0.47832        2.00579
H         -3.02336       -0.30415        1.97769
H         -4.01706        0.91614        2.76814
C         -0.91953       -3.91269        0.88186
C         -0.97500       -3.05496        2.01079
C         -0.69837       -1.71051        1.82741
C         -0.46130       -1.20291        0.57695
C         -0.51804       -2.00889       -0.52837
C         -0.78169       -3.36247       -0.41787
O         -0.95387       -5.32174        1.05650
C         -1.27887       -3.56785        3.42692
H         -0.64062       -1.04234        2.66813
H         -0.32878       -1.55833       -1.48682
C         -0.85990       -4.21056       -1.69610
C          4.41214        0.60900       -0.77960
C          3.53325        1.58549       -1.31554
C          2.20774        1.56992       -0.91291
C          1.73504        0.58572       -0.08578
C          2.55627       -0.42144        0.35025
C          3.89327       -0.46078       -0.00687
O          5.81240        0.71609       -0.99212
C          3.99337        2.64532       -2.32910
H          1.51720        2.31988       -1.25790
H          2.12987       -1.19121        0.97043
C          4.75296       -1.65069        0.44768
C         -1.98425       -2.47616        4.26364
C         -2.22581       -4.78108        3.38792
C          0.03811       -3.94503        4.12208
C         -1.40601       -3.36983       -2.87320
C          0.54782       -4.70731       -2.05970
C         -1.81580       -5.40342       -1.51568
C          0.32831       -5.91234        1.23113
H         -2.87090       -2.10679        3.74955
H         -2.29969       -2.87281        5.22840
H         -1.32710       -1.63168        4.46541
H         -1.76620       -5.62773        2.88428
H         -2.49310       -5.10222        4.39436
H         -3.14375       -4.53406        2.85557
H         -0.14355       -4.30272        5.13525
H          0.56079       -4.72815        3.57798
H          0.70264       -3.08331        4.18198
H         -2.34802       -2.89264       -2.60450
H         -0.70431       -2.59434       -3.17628
H         -1.58512       -3.99676       -3.74628
H          1.22246       -3.86678       -2.22138
H          0.96761       -5.31960       -1.26508
H          0.52814       -5.30455       -2.97087
H         -2.80540       -5.05982       -1.21632
H         -1.91821       -5.96716       -2.44259
H         -1.45620       -6.08872       -0.75234
H          1.10662       -5.14860        1.20290
H          0.36430       -6.43230        2.18830
H          0.50652       -6.64145        0.44092
C          6.49025        1.48704       -0.00844
C          2.83145        3.03401       -3.27253
C          4.46013        3.90122       -1.57849
C          5.12859        2.10547       -3.21808
C          5.84106       -1.97371       -0.59215
C          5.39643       -1.32479        1.80366
C          3.88648       -2.92250        0.60465
H          2.38526        2.14759       -3.72283
H          2.04988        3.58043       -2.74699
H          3.18470        3.67738       -4.07795
H          3.65287        4.30899       -0.97055
H          5.29271        3.67737       -0.91574
H          4.78246        4.67492       -2.27487
H          5.40781        2.83110       -3.98157
H          6.01849        1.88364       -2.63432
H          4.81994        1.18809       -3.71825
H          6.41123       -2.85587       -0.30206
H          5.39468       -2.16347       -1.56773
H          6.54218       -1.14979       -0.70077
H          6.03556       -0.44770        1.73539
H          4.63237       -1.12087        2.55353
H          6.00388       -2.15728        2.15784
H          3.31088       -3.11416       -0.30065
H          3.19299       -2.83854        1.44024
H          4.51078       -3.79519        0.79493
H          7.25592        0.87633        0.46970
H          6.97994        2.33704       -0.48326
H          5.78774        1.84577        0.74486
