171
-217.83700194
P         -1.51232        0.21782       -0.38704
P          1.65427       -0.72492        0.40270
C         -0.48797        1.03853       -1.62174
C          1.00826       -1.71596       -0.96358
C          0.42271        0.28078       -2.34743
C          1.24714        0.92089       -3.29247
C          1.09134        2.28085       -3.50734
C          0.16666        3.01347       -2.79228
C         -0.62073        2.38644       -1.84705
C          0.99387       -3.07068       -0.72858
C          0.46903       -3.93618       -1.66882
C         -0.05310       -3.43126       -2.84000
C         -0.06413       -2.06928       -3.08914
C          0.48315       -1.18830       -2.13735
Cl         0.71373       -0.86039        3.40830
Cl        -2.36866       -1.49538        2.32802
C         -0.67333       -1.57265       -4.35360
C          2.25905        0.15459       -4.07053
H          0.06098        4.07163       -2.96755
H         -1.34815        2.94932       -1.28819
H          1.38882       -3.44854        0.20315
H          0.46139       -4.99776       -1.48309
H          1.69855        2.76518       -4.25282
H         -0.47259       -4.09822       -3.57431
C         -4.20030       -2.71931       -2.54658
C         -3.56940       -3.12958       -1.37910
C         -2.76844       -2.20915       -0.71731
C         -2.58960       -0.94681       -1.22306
C         -3.19928       -0.56663       -2.39384
C         -4.02854       -1.44745       -3.07870
H         -4.85574       -3.40762       -3.04717
H         -2.28880       -2.46567        0.20932
H         -3.00491        0.41764       -2.78242
C         -4.14603        3.37156        1.58006
C         -3.27779        2.65412        2.39105
C         -2.47215        1.69595        1.79192
C         -2.54955        1.45012        0.44092
C         -3.43771        2.15383       -0.33635
C         -4.24703        3.13888        0.21545
H         -4.76251        4.13130        2.02430
H         -1.78481        1.13217        2.39297
H         -3.48941        1.93647       -1.38792
C          5.56818       -2.63928        1.64700
C          4.69622       -2.22883        2.64766
C          3.48938       -1.66208        2.26174
C          3.17460       -1.52342        0.93435
C          4.04651       -1.93951       -0.04233
C          5.26911       -2.50574        0.29698
H          6.50972       -3.07465        1.92751
H          2.77585       -1.32935        2.99194
H          3.76120       -1.81884       -1.07375
C          2.86570        3.60413       -0.20186
C          3.59451        2.59436       -0.81681
C          3.16475        1.28550       -0.63949
C          2.05904        1.00813        0.12624
C          1.36231        2.02036        0.74493
C          1.75616        3.34379        0.59429
H          3.19053        4.61862       -0.33585
H          3.70265        0.46684       -1.08396
H          0.51526        1.78043        1.36225
Pd        -0.43183       -0.71955        1.48928
C         -5.26508       -4.75197       -0.50162
C         -3.77874       -4.55419       -0.84822
C         -2.93982       -4.81576        0.41883
C         -3.35456       -5.56758       -1.92725
H         -5.44391       -5.75125       -0.10511
H         -5.58368       -4.02852        0.24864
H         -5.89636       -4.62293       -1.38006
H         -1.87706       -4.67840        0.22029
H         -3.22916       -4.14491        1.22741
H         -3.08080       -5.83682        0.77266
H         -3.95156       -5.45834       -2.83177
H         -2.30859       -5.42558       -2.19738
H         -3.47464       -6.59034       -1.57045
C         -4.66705       -2.09629       -5.43461
C         -4.80051       -1.02257       -4.33684
C         -4.27019        0.31003       -4.90304
C         -6.28366       -0.84734       -3.96657
H         -5.18235       -1.78635       -6.34365
H         -3.62135       -2.26808       -5.68619
H         -5.09866       -3.04600       -5.12228
H         -4.79118        0.57376       -5.82332
H         -4.42101        1.12741       -4.19873
H         -3.20674        0.24282       -5.13108
H         -6.70501       -1.77925       -3.59051
H         -6.39992       -0.09126       -3.19018
H         -6.86940       -0.53727       -4.83175
C         -2.24951        1.98444        4.62302
C         -3.24319        2.91868        3.90318
C         -4.64557        2.67509        4.49108
C         -2.81978        4.37626        4.15669
H         -2.24601        2.17599        5.69581
H         -2.51769        0.93838        4.47584
H         -1.23336        2.13297        4.26028
H         -4.97075        1.65333        4.29607
H         -4.64894        2.83068        5.56975
H         -5.38149        3.34956        4.05509
H         -1.83535        4.56973        3.73326
H         -3.52120        5.07675        3.70495
H         -2.77522        4.58966        5.22450
C         -4.77033        5.44918       -0.59190
C         -5.21102        3.97495       -0.63748
C         -6.63983        3.83904       -0.07940
C         -5.21883        3.51002       -2.10744
H         -4.79125        5.83595        0.42642
H         -3.75369        5.55825       -0.96963
H         -5.42595        6.07204       -1.20017
H         -6.70548        4.21230        0.94177
H         -7.34993        4.40205       -0.68489
H         -6.95285        2.79510       -0.07538
H         -5.52307        2.46638       -2.18538
H         -5.91811        4.10261       -2.69712
H         -4.23334        3.61890       -2.56010
C          5.31944       -3.89683        4.41379
C          5.08419       -2.40326        4.12286
C          3.97689       -1.89165        5.06561
C          6.37194       -1.60841        4.40662
H          4.42261       -4.47655        4.19610
H          6.13132       -4.29597        3.80699
H          5.57753       -4.05438        5.46087
H          4.26418       -2.02460        6.10846
H          3.78724       -0.83004        4.90882
H          3.04538       -2.43491        4.90830
H          7.20160       -1.96820        3.79921
H          6.22804       -0.55129        4.18391
H          6.66229       -1.69665        5.45339
C          7.58978       -2.17342       -0.59115
C          6.27896       -2.96239       -0.76500
C          5.75026       -2.71977       -2.19295
C          6.55035       -4.46818       -0.59453
H          8.03267       -2.35188        0.38798
H          8.32160       -2.46149       -1.34566
H          7.41004       -1.10277       -0.68666
H          5.55978       -1.66085       -2.36669
H          6.47666       -3.04951       -2.93558
H          4.82632       -3.27065       -2.36838
H          7.25068       -4.82629       -1.34894
H          6.97532       -4.68586        0.38461
H          5.62691       -5.03864       -0.69290
C          4.48688        3.81427       -2.82057
C          4.86167        2.93630       -1.61427
C          5.56897        1.66658       -2.12876
C          5.84404        3.69778       -0.70424
H          3.99642        4.73397       -2.50367
H          5.37224        4.08707       -3.39461
H          3.80705        3.28355       -3.48502
H          5.86086        1.01950       -1.30176
H          4.92372        1.09993       -2.79869
H          6.47229        1.92344       -2.68183
H          6.09557        3.10186        0.17294
H          6.76895        3.92600       -1.23368
H          5.41848        4.63913       -0.35894
C         -0.44413        4.53163        0.86231
C          1.01098        4.45353        1.35298
C          1.66737        5.83154        1.14121
C          1.03491        4.13245        2.85913
H         -0.47956        4.77921       -0.19793
H         -0.95651        3.58300        1.00679
H         -1.00039        5.29704        1.40288
H          2.70192        5.83010        1.48401
H          1.64996        6.11738        0.08965
H          1.13581        6.60203        1.69966
H          0.55055        4.92040        3.43514
H          0.52031        3.19690        3.07203
H          2.06042        4.03722        3.21529
H         -0.04143       -1.80926       -5.21081
H          3.11054        0.78288       -4.33529
H         -0.82370       -0.49279       -4.33110
H         -1.64634       -2.03651       -4.51707
H          1.82990       -0.23038       -4.99629
H          2.63868       -0.69184       -3.49592
