111
-148.55385152
P         -2.51526        2.11700        1.01214
P          0.08059        0.34128        0.52771
C         -1.45057        1.66609        2.40931
C         -0.30367        0.93508        2.18582
C         -3.19775        3.82743        1.19823
C         -2.51246        4.80381        0.26738
C         -1.78587        2.04268        3.69412
H         -2.69406        2.59632        3.86752
C         -0.96329        1.69349        4.75142
H         -1.22458        1.98736        5.75492
C          0.18998        0.96758        4.52293
H          0.82918        0.69422        5.34626
C          0.51886        0.58341        3.23527
H          1.40664        0.00215        3.03971
Pd        -1.32495        1.52982       -0.87471
Cl        -2.89318        2.56385       -2.09538
Cl         0.03453        0.89383       -2.55157
C         -4.70117        3.62603        0.93193
C         -4.08487        1.14149        0.93370
H         -2.91517        5.81306        0.38040
H         -1.43695        4.84371        0.45606
H         -2.65078        4.50990       -0.77380
H         -4.89796        3.81188       -0.13295
H         -5.29223        4.37726        1.47760
H         -4.19661        0.82958       -0.11345
C         -5.15812        2.18437        1.29748
C         -4.03012       -0.06170        1.84980
H         -3.03237        4.11523        2.24422
H         -5.35724        2.12554        2.37640
H         -6.11251        1.93858        0.80744
H         -3.85576        0.24495        2.88284
H         -4.96442       -0.62734        1.82376
H         -3.21843       -0.73540        1.56642
C         -1.14879       -4.01315        0.00885
C         -1.19889       -3.42617        1.29973
C         -0.81157       -2.10339        1.43467
C         -0.46490       -1.35489        0.34062
C         -0.52782       -1.88598       -0.91986
C         -0.89952       -3.20207       -1.12733
O         -1.30714       -5.41662       -0.14076
C         -1.62618       -4.21235        2.54908
H         -0.76189       -1.64132        2.40453
H         -0.27028       -1.24674       -1.74592
C         -0.98714       -3.73115       -2.56682
C          4.43186        0.78571       -0.72611
C          3.87555       -0.50729       -0.55259
C          2.54872       -0.60209       -0.16958
C          1.80772        0.51762        0.10319
C          2.36759        1.76572        0.03478
C          3.69098        1.93289       -0.34077
O          5.71438        0.93187       -1.31873
C          4.66759       -1.79755       -0.81627
H          2.06573       -1.56094       -0.09848
H          1.74557        2.61437        0.26299
C          4.28432        3.35015       -0.36845
C         -0.39035       -4.86847        3.18294
C         -2.27538       -3.27374        3.59165
C         -2.67488       -5.28349        2.19815
C          0.39017       -4.25934       -2.99610
C         -2.04559       -4.84208       -2.68829
C         -1.40665       -2.60173       -3.53605
C         -0.08838       -6.14612       -0.06843
H         -0.66060       -5.42530        4.07981
H          0.08833       -5.55762        2.49135
H          0.34541       -4.11457        3.46214
H         -2.67873       -3.84522        4.42730
H         -1.55635       -2.56827        4.00524
H         -3.09487       -2.70948        3.14805
H         -3.02653       -5.79595        3.09326
H         -3.53523       -4.83113        1.70601
H         -2.26520       -6.03563        1.52855
H          1.13753       -3.46789       -2.94658
H          0.72207       -5.06791       -2.34910
H          0.36338       -4.63479       -4.01867
H         -1.77959       -5.71113       -2.09194
H         -3.01620       -4.48595       -2.34471
H         -2.15123       -5.17145       -3.72165
H         -0.62960       -1.84561       -3.63671
H         -1.59704       -2.99805       -4.53307
H         -2.31700       -2.11256       -3.19063
H          0.07208       -6.68530       -1.00185
H          0.74969       -5.47107        0.10993
H         -0.14649       -6.87494        0.73985
C          5.68744        1.05417       -2.73543
C          6.15557       -1.61493       -0.46721
C          4.13646       -2.95462        0.06145
C          4.51209       -2.19630       -2.29173
C          3.61478        4.24310        0.70107
C          5.79109        3.32955       -0.05342
C          4.03858        3.97472       -1.75047
H          6.62304       -0.86577       -1.10128
H          6.27016       -1.29461        0.56780
H          6.70585       -2.54649       -0.59712
H          4.77753       -3.83159       -0.02563
H          4.10838       -2.66384        1.11126
H          3.13498       -3.26153       -0.23721
H          5.04680       -3.12155       -2.50492
H          3.46203       -2.34767       -2.54030
H          4.89928       -1.42480       -2.95250
H          3.65702        3.77067        1.68213
H          4.11939        5.20646        0.77148
H          2.57198        4.44630        0.46210
H          6.19629        4.34024       -0.01077
H          5.97554        2.84924        0.90690
H          6.34831        2.78433       -0.81089
H          4.51099        3.39132       -2.53690
H          4.43607        4.98820       -1.79778
H          2.97172        4.01926       -1.96831
H          4.66147        1.00001       -3.10196
H          6.12917        2.00605       -3.02954
H          6.27703        0.25413       -3.18278
