59
-75.79919516
Cl         1.44915        0.80315        2.41522
P          1.51865        0.18940       -0.80855
P         -1.61700       -0.23310       -0.76818
C          0.54147        0.36399       -2.36357
H          0.21449        1.40290       -2.44945
H          1.19439        0.15376       -3.21618
C         -0.63728       -0.56567       -2.30103
H         -0.29992       -1.60489       -2.25974
H         -1.29524       -0.46767       -3.17020
C          2.54383       -1.34957       -0.82690
H          2.54991       -1.70839       -1.86324
C          2.84679        1.46191       -0.59898
H          2.76706        1.81973        0.43480
C         -2.76337       -1.62399       -0.34355
H         -2.71957       -1.73406        0.74689
C         -2.84769        1.13110       -1.01575
H         -2.81841        1.38046       -2.08326
C          3.93993       -0.84614       -0.41814
H          4.05652       -0.97181        0.66716
H          4.72272       -1.47142       -0.87390
C          4.14125        0.64980       -0.78673
H          4.45878        0.72757       -1.83568
H          4.95925        1.09095       -0.19703
C         -4.13605       -1.07614       -0.76780
H         -4.32886       -1.36978       -1.80898
H         -4.93629       -1.54463       -0.17455
C         -4.19065        0.47071       -0.64534
H         -4.44083        0.74159        0.38972
H         -5.00361        0.88453       -1.26102
C          1.96291       -2.41140        0.09906
H          0.90570       -2.56997       -0.15347
H          1.95710       -2.02061        1.12549
C          2.68778        2.62585       -1.56980
H          2.73598        2.23985       -2.59657
H          1.67932        3.04813       -1.46672
C         -2.36945       -2.93443       -1.01440
H         -2.40014       -2.79917       -2.10346
H         -1.32068       -3.15911       -0.77799
C         -2.53494        2.36518       -0.17430
H         -3.39690        3.04610       -0.20937
H         -2.45116        2.06131        0.87748
C          2.71783       -3.73076        0.04157
H          2.28203       -4.48116        0.70513
H          3.76204       -3.60330        0.33252
H          2.71333       -4.14314       -0.96919
C          3.72940        3.71591       -1.36544
H          3.59433        4.54783       -2.06045
H          4.74070        3.33109       -1.50833
H          3.68012        4.12183       -0.35325
C         -3.25545       -4.10109       -0.60375
H         -2.95152       -5.03509       -1.08192
H         -4.29831       -3.92113       -0.87081
H         -3.22269       -4.25875        0.47596
C         -1.27896        3.10195       -0.61081
H         -1.34416        3.41110       -1.65567
H         -1.10139        3.99855       -0.01256
H         -0.39572        2.47100       -0.51409
Cl        -1.72010       -0.05550        2.37250
Pd        -0.04521        0.13484        0.88794
