105
-153.06876079
Cl         0.27095        2.95753        2.63098
Pd        -0.20823        1.69478        0.82402
P         -0.72828        0.53311       -1.16799
N          0.38444       -0.74895       -1.63245
C          0.53858       -2.12462       -1.41758
C          0.01778       -2.83273       -0.30224
C          0.37848       -4.18254       -0.10411
C         -0.02322       -4.87358        1.17824
C          0.85720       -6.08497        1.51658
C          0.96379       -7.01792        0.30666
C          1.58181       -6.29094       -0.89972
C          1.16833       -4.84520       -1.04675
C          1.64061       -4.14112       -2.14691
C          1.35183       -2.81239       -2.31700
H          1.75322       -2.27503       -3.15889
H          2.26510       -4.65038       -2.86152
H          2.67548       -6.32856       -0.82721
H          1.54133       -7.91826        0.55948
H          1.85935       -5.73797        1.79795
H          0.00120       -4.14780        2.00086
C         -0.71780       -2.12463        0.77227
C          0.01755       -1.25404        1.61297
C         -0.63522       -0.63352        2.67789
C         -1.96363       -0.87352        2.91850
C         -2.69833       -1.74467        2.12084
C         -4.14268       -1.99883        2.49129
C         -4.91061       -2.95846        1.56035
C         -3.98550       -4.01324        0.94295
C         -2.85531       -3.32160        0.17060
C         -2.07366       -2.37498        1.04194
H         -2.19109       -4.05342       -0.30220
H         -4.54384       -4.70463        0.29614
H         -5.38305       -2.38482        0.75398
H         -4.66047       -1.03288        2.54536
H         -2.45401       -0.38640        3.74420
H         -0.08045        0.04620        3.29999
N          1.36898       -1.01251        1.34486
P          1.87073        0.66002        1.10718
C          2.67565        0.88339       -0.47561
C          2.35175        1.98178       -1.23668
C          2.82811        2.08362       -2.52995
C          3.63405        1.08979       -3.06639
C          3.96645       -0.00129       -2.27506
C          3.49339       -0.10147       -0.97894
H          3.72980       -0.96121       -0.37240
H          4.58567       -0.78067       -2.68549
C          4.09215        1.17111       -4.48072
H          2.55374        2.92702       -3.14045
H          1.70423        2.74336       -0.83163
C          2.83274        1.31995        2.45836
C          2.87502        0.62211        3.64075
C          3.59140        1.12802        4.71085
C          4.27118        2.33375        4.59673
C          4.20652        3.02694        3.39492
C          3.48977        2.51927        2.32619
H          3.43199        3.05632        1.39268
H          4.71622        3.97081        3.30322
C          5.01790        2.89675        5.75561
H          3.62290        0.59016        5.64290
H          2.34778       -0.31544        3.71768
H          1.76404       -1.53351        0.57488
H          1.20569       -0.24721       -1.95017
C         -0.59135        1.74550       -2.49044
C         -0.89770        3.07198       -2.30395
C         -0.74452        3.97095       -3.34144
C         -0.29540        3.54566       -4.58408
C          0.00125        2.20132       -4.76054
C         -0.15178        1.30557       -3.71736
H          0.08292        0.26207       -3.85265
H          0.36028        1.86109       -5.71679
C         -0.09590        4.51861       -5.69350
H         -0.97310        5.01230       -3.19145
H         -1.26388        3.39857       -1.34639
C         -2.40333       -0.08898       -1.27609
C         -2.67051       -0.95718       -2.30873
C         -3.96361       -1.40584       -2.51739
C         -4.99513       -0.99260       -1.68557
C         -4.70791       -0.10454       -0.65719
C         -3.41827        0.35114       -0.46088
H         -3.20609        1.08066        0.30101
H         -5.50350        0.24056       -0.01925
C         -6.38312       -1.48192       -1.91224
H         -4.17760       -2.08569       -3.32426
H         -1.86330       -1.27801       -2.94867
Cl        -2.06972        2.94225        0.59875
H          1.33376       -6.82066       -1.82833
H          0.47116       -6.62135        2.39498
H         -0.03831       -7.37804        0.04131
H         -1.06647       -5.19779        1.10208
H         -3.55527       -4.63121        1.74077
H         -3.28385       -2.75263       -0.65822
H         -4.16244       -2.39409        3.51413
H         -5.74091       -3.43877        2.09663
H          5.05121        0.66876       -4.61415
H          3.36896        0.70039       -5.14826
H          4.21455        2.20835       -4.79574
H          4.37954        3.55906        6.34185
H          5.37789        2.10569        6.41487
H          5.88433        3.47064        5.42398
H          0.91626        4.92505       -5.67427
H         -0.25056        4.04587       -6.66440
H         -0.79515        5.35237       -5.61660
H         -6.79497       -1.06609       -2.83276
H         -6.40362       -2.56963       -1.99469
H         -7.04432       -1.19859       -1.09218
