105
-153.06118954
Cl         0.58305        3.67636        1.53234
Pd        -0.09489        1.95825        0.24479
P         -0.74435        0.26717       -1.29580
N          0.09409       -1.14173       -1.97254
C          0.17291       -2.47641       -1.58740
C         -0.15706       -2.96869       -0.29527
C          0.15078       -4.30732        0.03278
C         -0.01311       -4.76844        1.46307
C          0.78876       -6.03458        1.79709
C          0.54980       -7.11363        0.73707
C          0.98030       -6.62255       -0.65492
C          0.65452       -5.17521       -0.93852
C          0.89938       -4.68917       -2.21577
C          0.68289       -3.37204       -2.52685
H          0.92015       -3.00804       -3.51160
H          1.29495       -5.35916       -2.96052
H          2.06172       -6.76101       -0.77346
H          1.07205       -8.04338        1.00354
H          1.85759       -5.78895        1.83142
H          0.27728       -3.95090        2.13520
C         -0.73168       -2.10695        0.77257
C          0.10533       -1.13777        1.38481
C         -0.33884       -0.47500        2.52924
C         -1.58295       -0.73607        3.04201
C         -2.43927       -1.65137        2.43638
C         -3.78986       -1.88570        3.07312
C         -4.74948       -2.77956        2.26586
C         -3.99781       -3.89926        1.53851
C         -2.94243       -3.30339        0.59732
C         -2.01649       -2.33918        1.29508
H         -2.36814       -4.09607        0.10447
H         -4.69304       -4.55051        0.99006
H         -5.28386       -2.16920        1.52808
H         -4.25662       -0.91118        3.26508
H         -1.91763       -0.21669        3.92395
H          0.29721        0.25931        2.98831
N          1.26648       -0.77350        0.70883
P          1.82922        0.83583        0.96362
C          2.93101        1.32806       -0.35565
C          3.16068        2.66637       -0.56877
C          3.92695        3.06693       -1.64776
C          4.46299        2.12780       -2.51925
C          4.20557        0.78168       -2.29411
C          3.43990        0.38265       -1.21355
H          3.22468       -0.66010       -1.04481
H          4.60050        0.04835       -2.97630
C          5.25347        2.55826       -3.70537
H          4.09907        4.11413       -1.82856
H          2.69882        3.38842        0.08629
C          2.62789        0.90142        2.56574
C          2.51893        2.00359        3.37839
C          3.13979        2.01357        4.61257
C          3.87981        0.91869        5.03884
C          3.96946       -0.19101        4.20871
C          3.34593       -0.19742        2.97318
H          3.40287       -1.05864        2.32575
H          4.52723       -1.05149        4.53658
C          4.52729        0.91730        6.37992
H          3.05084        2.87288        5.25510
H          1.93911        2.84674        3.04368
H          1.11129       -0.86002       -0.29475
H          0.30579       -0.92929       -2.93960
C         -0.62003        1.46371       -2.63463
C         -1.72818        1.97506       -3.26624
C         -1.57264        2.90178       -4.28037
C         -0.30715        3.32580       -4.66389
C          0.79971        2.78995       -4.01993
C          0.64137        1.86294       -3.00624
H          1.49860        1.46073       -2.49135
H          1.78650        3.10646       -4.31125
C         -0.14069        4.31010       -5.76880
H         -2.43689        3.30623       -4.77897
H         -2.71024        1.65731       -2.95734
C         -2.47717       -0.15837       -1.13260
C         -3.03474       -0.93765       -2.11813
C         -4.38070       -1.25552       -2.06629
C         -5.17455       -0.79430       -1.02545
C         -4.59170       -0.01012       -0.03860
C         -3.24704        0.30542       -0.09297
H         -2.79545        0.91497        0.67255
H         -5.19692        0.35490        0.77342
C         -6.61862       -1.15322       -0.96859
H         -4.82230       -1.86816       -2.83356
H         -2.41185       -1.29581       -2.92280
Cl        -1.99814        3.05495       -0.23273
H          0.52012       -7.24358       -1.43410
H          0.53793       -6.40713        2.80039
H         -0.51681       -7.37116        0.71928
H         -1.07419       -4.95001        1.66382
H         -3.50537       -4.54495        2.27614
H         -3.44277       -2.77029       -0.21754
H         -3.62633       -2.32837        4.06303
H         -5.53078       -3.19763        2.91607
H          6.02192        1.82464       -3.95298
H          4.60899        2.67818       -4.57732
H          5.75240        3.51088       -3.52212
H          5.42220        0.29346        6.38470
H          4.82517        1.92463        6.67419
H          3.84472        0.53275        7.13897
H          0.79338        4.86414       -5.66597
H         -0.12931        3.80768       -6.73696
H         -0.95576        5.03510       -5.77465
H         -6.74624       -2.23056       -0.85324
H         -7.11773       -0.66603       -0.12989
H         -7.13069       -0.84920       -1.88254
