59
-75.79818484
Cl         1.33416        0.51636        2.44995
P          1.46272        0.02000       -0.81752
P         -1.73104       -0.21075       -0.81344
C          0.46144        0.36057       -2.33559
H          0.16070        1.41059       -2.33028
H          1.09609        0.20702       -3.21405
C         -0.74579       -0.53324       -2.33949
H         -0.44745       -1.58451       -2.34322
H         -1.38607       -0.36877       -3.21172
C          2.54235       -1.44743       -1.15337
H          2.21107       -1.82936       -2.12888
C          2.75672        1.30429       -0.48121
H          2.53001        1.72749        0.50554
C         -3.06076       -1.46312       -0.51158
H         -3.11912       -1.58279        0.57742
C         -2.77902        1.30771       -1.03046
H         -2.63022        1.63522       -2.06642
C          3.94871       -0.82750       -1.26603
H          4.70365       -1.55877       -0.94270
H          4.17946       -0.61718       -2.32102
C          4.06574        0.48838       -0.44753
H          4.89642        1.09880       -0.82780
H          4.33218        0.25405        0.59304
C         -4.31761       -0.74876       -1.03423
H         -4.43235       -0.97072       -2.10447
H         -5.21883       -1.15440       -0.54899
C         -4.21612        0.78599       -0.82710
H         -4.53751        1.03299        0.19410
H         -4.91469        1.31815       -1.49028
C          2.41346       -2.54927       -0.10146
H          2.93031       -3.45037       -0.46073
H          1.35788       -2.83682       -0.01917
C          2.74066        2.41289       -1.52882
H          2.99640        1.97972       -2.50480
H          1.71561        2.79018       -1.63872
C         -2.78443       -2.81041       -1.16711
H         -3.69250       -3.42742       -1.11856
H         -2.59995       -2.65417       -2.23781
C         -2.41113        2.43170       -0.06385
H         -3.21417        3.18196       -0.07320
H         -2.40665        2.02930        0.95759
C          2.94727       -2.17777        1.27239
H          4.02396       -2.00279        1.25250
H          2.76191       -2.96243        2.00957
H          2.48079       -1.26669        1.64391
C          3.67228        3.57101       -1.19831
H          4.71343        3.25000       -1.14337
H          3.42138        4.01288       -0.23209
H          3.61724        4.36559       -1.94606
C         -1.62068       -3.54699       -0.52445
H         -1.40966       -4.49768       -1.01931
H         -1.82018       -3.75929        0.52768
H         -0.71156       -2.94749       -0.55949
C         -1.08261        3.10371       -0.37365
H         -1.07348        3.51466       -1.38489
H         -0.86876        3.92356        0.31587
H         -0.25281        2.40118       -0.30226
Cl        -1.79142       -0.14743        2.37829
Pd        -0.14416       -0.03549        0.85223
