115
-277.93437329
P         -1.75425        0.88757        0.18193
P          1.77996       -0.00971        0.06104
C         -2.63910        2.44154        0.02438
C         -3.91242        2.52649        0.54847
H         -4.43328        1.62715        0.83896
C         -4.44631        3.76888        0.83427
H         -5.38133        3.85099        1.36428
C         -3.71047        4.91934        0.58684
C         -2.49377        4.81980       -0.06807
H         -1.92616        5.72175       -0.23747
C         -1.94982        3.58040       -0.33595
H         -0.95515        3.50530       -0.74480
C         -2.74378       -0.43534       -0.53549
C         -2.82502       -0.56372       -1.90288
H         -2.40309        0.19803       -2.53686
C         -3.38755       -1.69339       -2.45705
H         -3.39496       -1.84634       -3.52496
C         -3.87569       -2.69591       -1.64104
C         -3.84831       -2.52964       -0.26781
H         -4.20646       -3.32995        0.36029
C         -3.28416       -1.39967        0.28491
H         -3.22030       -1.29509        1.35578
C         -1.46982        0.56016        1.96008
C         -0.88512       -0.67483        2.15425
H         -0.61089       -1.26292        1.29871
C         -0.47821       -1.10544        3.41454
C         -0.87897       -0.35360        4.51219
H         -0.61315       -0.68159        5.50317
C         -1.46544        0.88315        4.33229
H         -1.65310        1.50742        5.18952
C         -1.66026        1.41366        3.05687
C          1.66099        0.69132        1.74423
C          1.10451        1.95913        1.74466
H          0.76066        2.38502        0.81645
C          0.81860        2.62858        2.93514
C          1.33146        2.09416        4.11161
H          1.15967        2.60788        5.04274
C          1.90532        0.83874        4.11893
H          2.18073        0.38992        5.05817
C          1.97201        0.06774        2.95900
C         -1.72286        2.92022        2.94486
H         -2.37603        3.31450        3.73236
H         -2.23759        3.19468        2.02845
C         -0.31637        3.61958        2.99415
H         -0.21807        4.34686        2.18120
H         -0.22174        4.21536        3.90882
C          0.66279       -2.08132        3.52818
H          0.44628       -2.96199        2.91370
H          0.70239       -2.46332        4.55412
C          2.03944       -1.43298        3.12618
H          2.80730       -1.67803        3.86822
H          2.40583       -1.86908        2.20030
C          1.53914       -1.79296       -0.11587
C          0.30731       -2.33958       -0.41042
C          2.60507       -2.61236        0.18404
C          0.10278       -3.69561       -0.25353
C          2.39797       -3.96448        0.35934
C          1.13115       -4.50386        0.20373
C          3.34005        0.47479       -0.69390
C          3.93568       -0.29095       -1.66952
C          3.92073        1.65286       -0.28652
C          5.12298        0.12357       -2.23912
H          3.45934       -1.19856       -2.00369
C          5.10937        2.06404       -0.85188
H          3.44505        2.24852        0.47567
C          5.71897        1.29978       -1.82834
H          5.59999       -0.45248       -3.01635
H          5.57848        2.98637       -0.54724
Pd         0.08915        0.90033       -1.27731
Cl        -1.26806        1.99633       -2.71066
Cl         1.58261        0.82769       -2.96351
H          3.19243       -4.59420        0.72576
H          3.57815       -2.18330        0.36819
H         -0.87436       -4.13741       -0.39626
H         -0.51372       -1.70599       -0.69962
C         -5.51708        6.40671        1.56914
C         -3.99300        6.20044        1.33228
C         -3.17777        6.11041        2.66282
F         -5.71826        7.62450        2.09597
F         -6.12972        6.31044        0.37989
F         -5.98019        5.45737        2.39380
F         -3.53699        7.24668        0.63927
F         -3.54606        5.00960        3.33094
F         -1.88218        6.00392        2.33530
F         -3.38732        7.21032        3.39824
C         -2.92853       -4.92826       -2.02710
C         -4.18941       -4.03993       -2.24314
C         -5.47636       -4.64966       -1.61562
F         -3.12527       -6.13556       -2.57657
F         -1.89565       -4.30497       -2.61294
F         -2.68608       -5.02960       -0.71332
F         -4.39071       -3.92289       -3.55835
F         -6.46208       -3.75141       -1.76149
F         -5.78548       -5.78423       -2.26263
F         -5.27421       -4.89236       -0.31303
C          6.69282        2.96994       -3.40180
C          7.00134        1.76020       -2.47351
C          8.05184        2.10644       -1.37706
F          5.84058        2.54470       -4.34680
F          6.12020        3.94548       -2.68160
F          7.83090        3.40279       -3.96488
F          7.51191        0.78479       -3.23006
F          8.14872        1.04589       -0.56138
F          9.23531        2.35132       -1.95992
F          7.63910        3.17588       -0.68265
C          1.96009       -6.83175        0.78249
C          0.78126       -5.81772        0.85824
C          0.38659       -5.46446        2.32652
F          2.98288       -6.39598        1.53084
F          1.53732       -8.02838        1.21961
F          2.34348       -6.91695       -0.50012
F         -0.27743       -6.37225        0.26301
F          1.39290       -4.79027        2.89914
F         -0.68834       -4.66528        2.27380
F          0.10962       -6.58478        3.00733
