111
-148.54997885
P         -2.05371        2.34135        1.26530
P          0.03631        0.10313        0.44477
C         -1.07218        1.52982        2.54433
C         -0.18985        0.53523        2.18747
C         -1.99519        4.18298        1.41949
C         -1.22627        4.78858        0.26537
C         -1.23702        1.86922        3.87153
H         -1.93025        2.65063        4.13827
C         -0.52071        1.19723        4.84678
H         -0.64878        1.45900        5.88440
C          0.34915        0.18447        4.49133
H          0.89955       -0.34663        5.25041
C          0.51234       -0.14929        3.15889
H          1.17466       -0.95039        2.86948
Pd        -1.49912        1.38371       -0.75940
Cl        -3.13598        2.61469       -1.67690
Cl        -0.89547        0.29946       -2.63105
C         -3.48276        4.58132        1.47530
C         -3.87078        2.05483        1.48388
H         -1.19403        5.87854        0.33453
H         -0.19829        4.41878        0.23527
H         -1.69429        4.53119       -0.68678
H         -3.80871        4.86474        0.46511
H         -3.61579        5.48323        2.09172
H         -4.26817        1.85791        0.47926
C         -4.37359        3.41695        1.99447
C         -4.14964        0.88503        2.40340
H         -1.50099        4.39755        2.37607
H         -4.36610        3.40897        3.09306
H         -5.42538        3.56845        1.70764
H         -5.22241        0.71356        2.51798
H         -3.69792       -0.03287        2.02060
H         -3.73645        1.06248        3.39746
C         -1.18224       -4.25670       -0.13341
C         -1.59692       -3.54501        1.02041
C         -1.18996       -2.22844        1.16019
C         -0.44109       -1.60767        0.19287
C         -0.12927       -2.26198       -0.96993
C         -0.53033       -3.56915       -1.18873
O         -1.38543       -5.66017       -0.21095
C         -2.43683       -4.19606        2.13015
H         -1.44341       -1.66943        2.04367
H          0.42581       -1.73125       -1.72151
C         -0.25808       -4.20945       -2.55942
C          4.29869        1.07011       -0.91292
C          4.00477        0.97115        0.47014
C          2.70054        0.69790        0.84714
C          1.72041        0.46077       -0.08269
C          2.02519        0.47540       -1.41858
C          3.30920        0.72840       -1.86829
O          5.56797        1.54575       -1.33762
C          5.07028        1.18565        1.55731
H          2.43009        0.68872        1.88660
H          1.22640        0.31825       -2.11933
C          3.59737        0.65306       -3.37621
C         -3.29037       -3.13874        2.86620
C         -3.41211       -5.23462        1.54680
C         -1.50013       -4.86417        3.14790
C         -0.35527       -3.14645       -3.67794
C          1.15506       -4.81086       -2.56883
C         -1.30015       -5.29418       -2.88800
C         -0.28022       -6.42831        0.24804
H         -3.97160       -3.61470        3.57116
H         -2.67269       -2.44704        3.43732
H         -3.88906       -2.56502        2.15943
H         -4.05226       -5.65111        2.32411
H         -4.04959       -4.77941        0.78960
H         -2.87940       -6.06078        1.08204
H         -2.06659       -5.32286        3.95795
H         -0.89821       -5.63877        2.67870
H         -0.81962       -4.13259        3.58313
H          0.45406       -2.42162       -3.61825
H         -0.29654       -3.61121       -4.66178
H         -1.29970       -2.60630       -3.61733
H          1.37971       -5.26481       -3.53366
H          1.90251       -4.04167       -2.37555
H          1.26224       -5.57604       -1.80319
H         -2.30830       -4.88409       -2.83834
H         -1.14601       -5.69559       -3.88929
H         -1.24431       -6.12467       -2.18914
H          0.50153       -5.77487        0.63737
H         -0.61109       -7.10725        1.03393
H          0.12046       -7.02429       -0.57160
C          5.62540        2.95377       -1.52994
C          4.71840        0.38991        2.83523
C          6.44904        0.68895        1.08554
C          5.13904        2.67783        1.91569
C          3.31973        2.02184       -4.01545
C          5.05097        0.22341       -3.64570
C          2.68842       -0.40017       -4.05037
H          5.53499        0.43459        3.55552
H          3.83509        0.79110        3.33009
H          4.53589       -0.65867        2.60149
H          7.19149        0.78259        1.87769
H          6.39884       -0.35835        0.78956
H          6.80572        1.26000        0.23193
H          5.87651        2.85798        2.69746
H          5.41242        3.27886        1.05198
H          4.17304        3.03264        2.27431
H          3.50720        1.99685       -5.08857
H          2.28150        2.31482       -3.86093
H          3.94949        2.79498       -3.58167
H          5.26603       -0.72734       -3.15902
H          5.23362        0.10681       -4.71365
H          5.75918        0.95719       -3.26976
H          1.64368       -0.09355       -4.04724
H          2.76778       -1.36050       -3.54164
H          2.97398       -0.54867       -5.09145
H          6.41113        3.37546       -0.90322
H          5.86611        3.17306       -2.56995
H          4.66952        3.41233       -1.27370
