45
-71.81225486
C          1.57561        1.07651        2.56354
P          1.33049        0.78861        0.78040
P         -1.33581        0.14157       -0.90636
C         -1.26900       -0.43999       -2.63229
Cl         1.51235       -2.15723        1.80693
H          2.17020        1.97228        2.71809
H         -0.25510       -0.35031       -3.01200
Cl        -0.95945       -2.98398       -0.34149
C          0.38048        2.11710        0.01320
C         -0.71824        1.83198       -0.76862
C         -1.37735        2.84698       -1.43219
C         -0.94664        4.15480       -1.29476
C          0.14287        4.44231       -0.49641
C          0.81092        3.42072        0.15547
H         -2.22680        2.61068       -2.05334
H         -1.46348        4.94836       -1.80891
H          0.47871        5.46042       -0.38751
H          1.67492        3.63059        0.76586
Pd         0.11476       -1.14650        0.36549
H         -1.93400        0.15576       -3.25092
H          2.09167        0.22950        3.00649
H         -1.57505       -1.48098       -2.68393
C         -5.56199       -0.22369        0.77459
C         -4.98286        1.02258        0.64241
C         -3.69966        1.13699        0.13941
C         -3.00098        0.00915       -0.23101
C         -3.57428       -1.23363       -0.08713
C         -4.85758       -1.35417        0.41246
H         -6.56221       -0.31442        1.16576
H         -5.52932        1.90562        0.93056
H         -3.23837        2.10508        0.04252
H         -2.99987       -2.10899       -0.33895
H         -5.30292       -2.32905        0.52478
C          5.29716        0.25143       -1.40380
C          4.88295       -0.68706       -0.47989
C          3.67870       -0.51888        0.17742
C          2.89700        0.58293       -0.08348
C          3.30517        1.51645       -1.01004
C          4.50838        1.35256       -1.67208
H          6.23476        0.12210       -1.91939
H          5.49244       -1.55198       -0.27558
H          3.32711       -1.25694        0.87835
H          2.67954        2.36837       -1.21747
H          4.82853        2.08320       -2.39667
H          0.61360        1.19940        3.05287
