171
-217.84018793
P         -1.68406        0.67936        0.19955
P          1.53432       -0.19506       -0.20170
C         -0.84480        1.86859       -0.86953
C          0.74630       -0.77623       -1.71283
C         -0.13430        1.52617       -2.01412
C          0.55611        2.53737       -2.70886
C          0.49591        3.84162       -2.24780
C         -0.21297        4.16217       -1.11028
C         -0.87672        3.16728       -0.41885
C          0.92809       -2.07126       -2.13064
C          0.31708       -2.51992       -3.28488
C         -0.47981       -1.66229       -4.01481
C         -0.67883       -0.35188       -3.61050
C         -0.03173        0.10912       -2.44796
Cl         1.95814        0.93191        2.84806
Cl        -1.17886        0.18819        3.41446
C         -1.54800        0.55165       -4.41340
C          1.36976        2.23750       -3.91913
H         -0.24245        5.17973       -0.75642
H         -1.41771        3.39838        0.48708
H          1.55742       -2.73036       -1.55752
H          0.45976       -3.53705       -3.61148
H          1.02572        4.60923       -2.78641
H         -0.95035       -2.00737       -4.91959
C         -2.85120       -3.41248       -1.36558
C         -1.88468       -3.34612       -0.36851
C         -1.50362       -2.08881        0.08244
C         -2.07355       -0.95406       -0.44644
C         -3.04041       -1.04196       -1.41754
C         -3.45358       -2.27887       -1.89581
H         -3.16326       -4.37204       -1.73237
H         -0.76762       -1.99767        0.86120
H         -3.48290       -0.13439       -1.78854
C         -5.67499        2.50532        1.33348
C         -4.92009        1.90176        2.33257
C         -3.69318        1.36117        1.97790
C         -3.24223        1.42963        0.68550
C         -3.99714        2.03498       -0.28922
C         -5.23610        2.58485        0.01721
H         -6.63229        2.92548        1.57847
H         -3.07367        0.88682        2.71698
H         -3.60652        2.07790       -1.29177
C          3.80871       -3.69335        1.62742
C          2.77394       -3.13610        2.36566
C          2.07448       -2.07641        1.80556
C          2.41686       -1.57547        0.57124
C          3.46276       -2.12695       -0.12874
C          4.17389       -3.20645        0.37996
H          4.34721       -4.52821        2.03686
H          1.26033       -1.63493        2.34792
H          3.71767       -1.71372       -1.08777
C          4.52108        3.01695       -1.33192
C          3.69089        3.23442       -0.23978
C          2.79801        2.22941        0.10605
C          2.72716        1.07384       -0.62949
C          3.53546        0.88766       -1.72456
C          4.46038        1.85729       -2.09460
H          5.24510        3.76863       -1.58641
H          2.15725        2.33568        0.96218
H          3.42273       -0.01187       -2.30401
Pd         0.14982        0.43484        1.61741
C         -1.58922       -4.57005        1.79481
C         -1.29018       -4.60387        0.28459
C          0.23029       -4.63900        0.05681
C         -1.89574       -5.89400       -0.30139
H         -2.66311       -4.51761        1.97263
H         -1.20926       -5.46342        2.28961
H         -1.13118       -3.70325        2.26828
H          0.70917       -3.75467        0.47160
H          0.67787       -5.51323        0.52884
H          0.45818       -4.68132       -1.00752
H         -1.46900       -6.77382        0.18014
H         -2.97446       -5.92575       -0.14926
H         -1.69280       -5.97282       -1.36931
C         -5.17040       -1.04935       -3.31779
C         -4.57273       -2.41896       -2.93808
C         -5.70212       -3.29062       -2.35679
C         -4.00969       -3.08033       -4.20781
H         -5.97097       -1.16526       -4.04820
H         -5.58998       -0.55035       -2.44437
H         -4.41641       -0.39808       -3.75778
H         -6.09090       -2.85264       -1.43762
H         -6.52745       -3.38107       -3.06283
H         -5.35097       -4.29568       -2.12658
H         -3.21983       -2.46906       -4.64129
H         -3.59203       -4.06272       -3.99026
H         -4.78808       -3.20614       -4.96020
C         -5.48865        0.32638        4.19716
C         -5.38716        1.80874        3.79205
C         -6.76503        2.46769        3.99400
C         -4.36559        2.52279        4.69706
H         -4.52232       -0.17102        4.12225
H         -5.83625        0.22558        5.22511
H         -6.18807       -0.20249        3.55002
H         -7.07916        2.39530        5.03519
H         -6.73641        3.52498        3.73114
H         -7.52631        1.97969        3.38566
H         -4.67896        2.49083        5.74032
H         -3.38340        2.05631        4.63044
H         -4.25949        3.56804        4.40760
C         -7.44709        2.47869       -1.15861
C         -6.11834        3.24881       -1.04942
C         -5.43762        3.24485       -2.43290
C         -6.39357        4.70924       -0.64687
H         -7.99266        2.49488       -0.21583
H         -8.08941        2.91503       -1.92337
H         -7.26716        1.43676       -1.42295
H         -4.49293        3.78780       -2.40694
H         -5.24271        2.22771       -2.77224
H         -6.07290        3.72376       -3.17787
H         -7.00056        5.21328       -1.39877
H         -6.92508        4.76592        0.30230
H         -5.45978        5.26122       -0.54118
C          3.70242       -3.58732        4.65034
C          2.44656       -3.68065        3.76361
C          2.00095       -5.14876        3.64730
C          1.31951       -2.87411        4.44017
H          4.51793       -4.18775        4.24923
H          4.04770       -2.55586        4.71833
H          3.49427       -3.94107        5.65994
H          2.78532       -5.76685        3.21191
H          1.75459       -5.56066        4.62576
H          1.11884       -5.23378        3.01446
H          1.59586       -1.82488        4.54328
H          0.39429       -2.93074        3.86863
H          1.11231       -3.26039        5.43787
C          5.59517       -3.14358       -1.73056
C          5.31899       -3.86888       -0.39840
C          4.93919       -5.32880       -0.70533
C          6.60378       -3.83039        0.44956
H          6.41698       -3.61812       -2.26658
H          4.72084       -3.16866       -2.38084
H          5.87040       -2.10306       -1.55922
H          4.77835       -5.89602        0.21082
H          4.02063       -5.37202       -1.29055
H          5.72563       -5.82600       -1.27285
H          6.48192       -4.38123        1.38134
H          7.44087       -4.27227       -0.09069
H          6.86803       -2.80310        0.69987
C          2.73677        4.60188        1.68149
C          3.78609        4.54485        0.55312
C          3.54229        5.73309       -0.39547
C          5.18703        4.65637        1.18040
H          1.72640        4.51884        1.28149
H          2.88987        3.79841        2.40161
H          2.80138        5.54539        2.22303
H          2.56145        5.65570       -0.86363
H          3.58427        6.67857        0.14493
H          4.28912        5.76895       -1.18761
H          5.38045        3.81070        1.84010
H          5.96277        4.66830        0.41562
H          5.28086        5.57057        1.76623
C          6.84428        1.38273       -2.66591
C          5.44534        1.63952       -3.25299
C          5.48832        2.88512       -4.15987
C          5.04164        0.42950       -4.11921
H          7.18011        2.23176       -2.07111
H          6.83553        0.50519       -2.01958
H          7.57576        1.21418       -3.45604
H          4.49976        3.11247       -4.55646
H          5.84476        3.76194       -3.62140
H          6.15820        2.72571       -5.00473
H          4.03353        0.55030       -4.51489
H          5.71920        0.31652       -4.96541
H          5.07902       -0.49692       -3.54712
H         -2.01584        1.30993       -3.78338
H          2.35248        2.70358       -3.84406
H         -2.34515       -0.00544       -4.90736
H         -0.97197        1.06212       -5.18607
H          0.88614        2.61918       -4.81941
H          1.52372        1.16531       -4.04531
