105
-153.07134014
Cl         0.02506        1.81610        3.06762
Pd        -0.62857        1.14334        1.01634
P         -1.23006        0.49762       -1.14473
N         -0.92963       -1.05441       -1.90946
C          0.08692       -1.97152       -1.62886
C          0.32187       -2.47542       -0.32218
C          1.33783       -3.43260       -0.12353
C          1.54832       -3.99439        1.26274
C          2.42541       -5.25496        1.31636
C          3.65022       -5.11041        0.40883
C          3.22035       -4.88083       -1.04769
C          2.10834       -3.87370       -1.20272
C          1.83711       -3.39015       -2.47624
C          0.84447       -2.47004       -2.68874
H          0.65100       -2.10301       -3.68157
H          2.42557       -3.74634       -3.30487
H          4.07814       -4.55555       -1.65026
H          4.25555       -4.26102        0.74928
H          2.73052       -5.47511        2.34914
H          1.99455       -3.21175        1.88692
C         -0.62166       -2.18467        0.78379
C         -0.15005       -1.59681        1.99128
C         -1.02745       -1.51149        3.07730
C         -2.32294       -1.94738        2.97454
C         -2.80587       -2.51176        1.80026
C         -4.23774       -2.99358        1.78329
C         -4.74256       -3.46379        0.40844
C         -3.65068       -4.22353       -0.34957
C         -2.41825       -3.33162       -0.55517
C         -1.95035       -2.64507        0.70427
H         -1.59220       -3.92214       -0.97075
H         -4.02921       -4.59865       -1.31100
H         -5.05412       -2.59632       -0.18616
H         -4.88060       -2.19168        2.16815
H         -2.98691       -1.85528        3.81743
H         -0.68104       -1.05606        3.98840
N          1.12400       -1.02063        2.09733
P          1.53866        0.18014        0.87498
C          2.65577       -0.40812       -0.38944
C          2.52086        0.07032       -1.66800
C          3.42212       -0.31565       -2.64293
C          4.46761       -1.17617       -2.33454
C          4.60795       -1.61670       -1.02483
C          3.70279       -1.23084       -0.05237
H          3.80713       -1.56329        0.96814
H          5.42946       -2.26471       -0.77161
C          5.44211       -1.58904       -3.38141
H          3.31599        0.04819       -3.65054
H          1.70941        0.73987       -1.89379
C          2.38402        1.60882        1.56494
C          3.19062        1.47990        2.66967
C          3.84563        2.58984        3.17173
C          3.69576        3.83224        2.56977
C          2.89370        3.93560        1.44111
C          2.24014        2.82519        0.93937
H          1.61403        2.90259        0.06398
H          2.78251        4.89113        0.95770
C          4.41635        5.02252        3.10018
H          4.47906        2.49728        4.03736
H          3.31054        0.51364        3.13199
H          1.31145       -0.56410        2.98057
H         -1.20530       -0.93388       -2.87560
C         -0.51450        1.84661       -2.08784
C         -0.57207        3.11872       -1.56843
C          0.00695        4.17013       -2.25342
C          0.64446        3.95410       -3.46758
C          0.66445        2.66859       -3.99208
C          0.08477        1.61868       -3.30400
H          0.11457        0.61889       -3.70418
H          1.14065        2.49443       -4.94189
C          1.25425        5.08790       -4.21581
H         -0.03527        5.16701       -1.84896
H         -1.08495        3.28284       -0.63355
C         -3.01359        0.69922       -1.17880
C         -3.59687        1.48670       -2.14297
C         -4.97112        1.64138       -2.16639
C         -5.76885        1.01420       -1.21896
C         -5.16164        0.21381       -0.26151
C         -3.78805        0.05604       -0.24584
H         -3.31037       -0.55474        0.50130
H         -5.77121       -0.27837        0.47675
C         -7.24985        1.16511       -1.25100
H         -5.43263        2.25527       -2.92089
H         -2.97564        1.98042       -2.87286
Cl        -2.53745        2.30613        1.24935
H          2.89475       -5.82972       -1.49044
H          1.83588       -6.12210        0.99310
H          4.30389       -5.99032        0.49137
H          0.56829       -4.20217        1.71055
H         -3.36304       -5.11424        0.22299
H         -2.64044       -2.56532       -1.30668
H         -4.33190       -3.81265        2.50637
H         -5.64426       -4.08330        0.51479
H          4.96582       -1.64459       -4.36133
H          6.26597       -0.87707       -3.44656
H          5.86217       -2.57179       -3.16241
H          4.52260        4.96646        4.18445
H          5.41471        5.09611        2.66679
H          3.87971        5.94354        2.86824
H          1.61530        5.85991       -3.53480
H          2.10211        4.75328       -4.81522
H          0.52625        5.54489       -4.88746
H         -7.53873        2.12621       -1.67859
H         -7.70672        0.37771       -1.85203
H         -7.67209        1.11028       -0.24662
