171
-217.84851742
P         -1.57577        0.39699       -0.27157
P          1.57367       -0.39075       -0.26489
C         -0.84389        1.35940       -1.59821
C          0.84236       -1.35825       -1.58813
C         -0.08654        0.73742       -2.58435
C          0.52524        1.53587       -3.56989
C          0.33602        2.90792       -3.54338
C         -0.43170        3.50242       -2.56410
C         -1.01639        2.72158       -1.58681
C          1.01474       -2.72038       -1.56888
C          0.43390       -3.50625       -2.54441
C         -0.33026       -2.91677       -3.52952
C         -0.51945       -1.54487       -3.56380
C          0.08877       -0.74126       -2.58025
Cl         1.59095        0.39986        2.95509
Cl        -1.54358       -0.34616        2.99975
C         -1.35673       -0.95029       -4.64140
C          1.36495        0.93504       -4.64211
H         -0.57413        4.57064       -2.55902
H         -1.61076        3.17603       -0.81064
H          1.60576       -3.17068       -0.78764
H          0.57682       -4.57434       -2.53354
H          0.80370        3.51332       -4.30149
H         -0.79542       -3.52610       -4.28603
C         -3.87557       -3.22022       -1.71545
C         -2.91164       -3.39135       -0.73035
C         -2.21070       -2.26942       -0.30537
C         -2.45261       -1.04480       -0.87597
C         -3.39439       -0.89592       -1.86546
C         -4.13594       -1.98830       -2.30119
H         -4.45738       -4.07020       -2.02072
H         -1.47767       -2.33689        0.47967
H         -3.55312        0.08403       -2.28274
C         -4.44794        2.87176        2.23190
C         -4.95803        1.90015        1.38182
C         -4.05583        1.16968        0.61982
C         -2.70730        1.41888        0.69615
C         -2.22271        2.39354        1.53468
C         -3.08768        3.13260        2.33264
H         -5.12939        3.43078        2.84656
H         -4.40045        0.38497       -0.02868
H         -1.15979        2.55420        1.58301
C          4.42696       -2.88787        2.23760
C          3.06238       -3.11077        2.36682
C          2.20303       -2.36537        1.56870
C          2.69769       -1.41698        0.70642
C          4.05044       -1.20226        0.60459
C          4.94680       -1.94308        1.36355
H          5.10468       -3.45697        2.84711
H          1.13746       -2.50000        1.63509
H          4.40358       -0.43719       -0.06242
C          3.88642        3.20832       -1.73445
C          2.92194        3.38958       -0.75172
C          2.21901        2.27251       -0.31767
C          2.45825        1.04269       -0.87811
C          3.39903        0.88415       -1.86704
C          4.14333        1.97131       -2.31106
H          4.47125        4.05420       -2.04518
H          1.48611        2.34841        0.46664
H          3.55386       -0.09884       -2.27854
Pd        -0.00011        0.02905        1.41429
C         -2.43440       -5.80841       -1.23134
C         -2.68678       -4.77812       -0.11404
C         -3.93650       -5.17844        0.68944
C         -1.46994       -4.78180        0.82922
H         -1.58137       -5.51339       -1.84106
H         -2.22534       -6.79288       -0.81311
H         -3.29757       -5.90537       -1.88835
H         -4.81725       -5.22380        0.04960
H         -3.80676       -6.15648        1.15244
H         -4.13410       -4.45360        1.47901
H         -1.29222       -5.78024        1.22859
H         -0.56908       -4.46821        0.30208
H         -1.62929       -4.11288        1.67465
C         -6.61080       -2.13024       -2.64008
C         -5.26421       -1.85915       -3.33533
C         -5.06055       -2.88436       -4.46772
C         -5.30663       -0.44869       -3.95498
H         -6.77545       -1.42250       -1.82877
H         -7.43906       -2.03729       -3.34232
H         -6.64033       -3.13412       -2.21763
H         -4.09790       -2.74204       -4.95578
H         -5.09596       -3.90602       -4.09208
H         -5.83783       -2.78504       -5.22526
H         -4.36228       -0.20383       -4.43991
H         -6.09256       -0.38022       -4.70700
H         -5.51156        0.30782       -3.19788
C         -6.94832        1.17170        2.71791
C         -6.47014        1.64053        1.33180
C         -6.82454        0.55376        0.29807
C         -7.19922        2.93915        0.94030
H         -8.01724        0.95921        2.71113
H         -6.42474        0.26413        3.01787
H         -6.76331        1.93040        3.47745
H         -7.90139        0.38937        0.26218
H         -6.50113        0.84584       -0.70083
H         -6.35489       -0.39666        0.55114
H         -8.27505        2.77759        0.87447
H         -7.02573        3.72796        1.67123
H         -6.85184        3.29789       -0.02845
C         -3.20631        5.54187        3.02620
C         -2.58556        4.16993        3.34658
C         -1.05239        4.30652        3.30585
C         -2.99499        3.72758        4.76351
H         -2.84910        6.30283        3.71987
H         -2.94384        5.85597        2.01606
H         -4.29298        5.51202        3.09580
H         -0.56587        3.35938        3.53871
H         -0.72276        4.63543        2.32193
H         -0.70815        5.04196        4.03278
H         -2.63146        4.43064        5.51268
H         -4.07806        3.66520        4.86185
H         -2.58137        2.74545        4.99207
C          3.09131       -5.52098        3.06011
C          2.55169       -4.12099        3.40359
C          1.01318       -4.18038        3.42682
C          3.03897       -3.70024        4.80268
H          2.73143       -6.26328        3.77236
H          2.76801       -5.82381        2.06425
H          4.18035       -5.54110        3.07883
H          0.58506       -3.20688        3.66573
H          0.62681       -4.50332        2.46200
H          0.66267       -4.88927        4.17674
H          4.12667       -3.69657        4.86037
H          2.68760       -2.69724        5.04440
H          2.66715       -4.38225        5.56708
C          6.82832       -0.66093        0.22887
C          6.46401       -1.72326        1.28428
C          7.15299       -3.04578        0.90028
C          6.97764       -1.24670        2.65501
H          6.38717        0.30454        0.47608
H          7.90823       -0.52460        0.17282
H          6.48089       -0.95851       -0.76028
H          6.77950       -3.41009       -0.05660
H          8.23122       -2.91274        0.81328
H          6.97272       -3.81882        1.64626
H          8.05141       -1.06223        2.62723
H          6.48286       -0.32145        2.94980
H          6.78604       -1.98903        3.42896
C          3.94166        5.18176        0.66510
C          2.69773        4.78162       -0.14716
C          1.47166        4.79757        0.78411
C          2.46007        5.80539       -1.27378
H          3.81268        6.16412        1.11908
H          4.12780        4.46219        1.46224
H          4.82863        5.21725        0.03327
H          1.61938        4.13632        1.63764
H          1.29319        5.80031        1.17222
H          0.57544        4.48182        0.25043
H          2.24961        6.79316       -0.86410
H          3.33026        5.89582       -1.92237
H          1.61244        5.50888       -1.89037
C          5.07752        2.85620       -4.47837
C          5.27121        1.83094       -3.34418
C          5.30170        0.41942       -3.96217
C          6.61933        2.09118       -2.64793
H          4.11255        2.72371       -4.96467
H          5.12521        3.87820       -4.10504
H          5.85252        2.74655       -5.23682
H          5.50119       -0.33796       -3.20454
H          4.35499        0.18169       -4.44598
H          6.08643        0.34372       -4.71475
H          6.65628        3.09473       -2.22524
H          6.77766        1.38198       -1.83662
H          7.44737        1.99176       -3.34953
H         -2.26093       -1.53796       -4.79648
H          2.26254        1.52967       -4.80885
H         -0.81286       -0.92079       -5.58652
H         -1.66414        0.06669       -4.39438
H          0.81816        0.88660       -5.58474
H          1.68336       -0.07523       -4.38178
