111
-148.55112943
P         -2.14920        2.54143        0.24788
P         -0.25742        0.00023        0.52047
C         -1.71870        1.90752        1.88825
C         -0.90788        0.79973        2.00208
C         -1.83664        4.36308        0.16626
C         -0.97463        4.70817       -1.02865
C         -2.15972        2.55874        3.02240
H         -2.77373        3.43922        2.92551
C         -1.79395        2.09067        4.27260
H         -2.14074        2.59678        5.15872
C         -0.97380        0.98468        4.38475
H         -0.67789        0.62708        5.35725
C         -0.52070        0.34413        3.24542
H          0.15067       -0.49750        3.31657
Pd        -1.03101        1.24086       -1.29126
Cl        -2.19986        2.24809       -2.91748
Cl         0.33651        0.02623       -2.59768
C         -3.25870        4.95744        0.10310
C         -3.96201        2.50105       -0.12775
H         -0.01797        4.18227       -0.99524
H         -1.47318        4.42149       -1.95624
H         -0.77026        5.78022       -1.08082
H         -3.23834        5.89778       -0.46697
H         -3.59577        5.23136        1.11363
H         -4.08041        1.82652       -0.98709
C         -4.27178        3.95927       -0.52439
C         -4.76863        1.99506        1.04895
H         -1.32894        4.63988        1.10039
H         -5.29991        4.21091       -0.22611
H         -4.24812        4.05990       -1.61949
H         -5.83154        1.92633        0.80565
H         -4.42954        1.00620        1.36673
H         -4.67206        2.66757        1.90242
C         -1.17841       -4.46664        0.24873
C         -0.48794       -3.81013       -0.80075
C         -0.26793       -2.44894       -0.68588
C         -0.62385       -1.75679        0.44162
C         -1.20820       -2.40813        1.49723
C         -1.46634       -3.76809        1.44883
O         -1.61258       -5.80919        0.08547
C         -0.00369       -4.53719       -2.06527
H          0.16699       -1.89447       -1.49787
H         -1.47763       -1.83393        2.36469
C         -2.07306       -4.45975        2.68039
C          4.13939        1.07845        0.07741
C          3.76680       -0.29071        0.07104
C          2.42537       -0.60635        0.20369
C          1.48852        0.37150        0.40665
C          1.85418        1.68783        0.51793
C          3.17880        2.07294        0.39524
O          5.46342        1.45782       -0.26938
C          4.78180       -1.42806       -0.12295
H          2.09091       -1.62573        0.13353
H          1.07908        2.41548        0.69005
C          3.54380        3.55520        0.56952
C          0.36853       -5.99913       -1.75891
C         -1.10404       -4.48081       -3.13557
C          1.26715       -3.86106       -2.62954
C         -1.65082       -3.73529        3.97920
C         -3.60551       -4.42755        2.57935
C         -1.57926       -5.91327        2.79813
C         -2.90515       -5.93453       -0.49442
H          1.11998       -6.04627       -0.97140
H         -0.49610       -6.56890       -1.42844
H          0.77120       -6.49428       -2.64217
H         -1.34732       -3.44762       -3.38248
H         -0.78541       -4.98032       -4.05006
H         -2.01601       -4.96158       -2.78980
H          1.05884       -2.86460       -3.01584
H          2.03409       -3.77810       -1.86058
H          1.68145       -4.44226       -3.45295
H         -2.09975       -2.74590        4.05387
H         -1.97017       -4.29724        4.85661
H         -0.56765       -3.62642        4.02803
H         -4.06406       -4.89877        3.44836
H         -3.96622       -3.40079        2.52218
H         -3.95341       -4.95022        1.69176
H         -0.49070       -5.94744        2.82734
H         -1.95808       -6.38365        3.70517
H         -1.90917       -6.51413        1.95431
H         -3.33510       -4.94991       -0.68237
H         -2.83479       -6.48527       -1.43220
H         -3.55478       -6.49284        0.17950
C          5.65309        1.69170       -1.65929
C          4.31132       -2.70909        0.60361
C          4.91507       -1.73548       -1.62233
C          6.15388       -1.05835        0.46913
C          2.55994        4.24931        1.53949
C          4.95232        3.71061        1.17071
C          3.46754        4.26197       -0.79238
H          4.08736       -2.50094        1.64950
H          3.42214       -3.13411        0.14104
H          5.08421       -3.47676        0.57327
H          5.61281       -2.55484       -1.79316
H          3.95117       -2.01813       -2.04453
H          5.27296       -0.86856       -2.17232
H          6.05922       -0.79802        1.52281
H          6.85319       -1.89000        0.38651
H          6.59319       -0.20777       -0.04561
H          2.89122        5.26219        1.76728
H          1.56113        4.32913        1.11332
H          2.48940        3.70104        2.47856
H          5.71388        3.31126        0.50550
H          5.18835        4.75922        1.35007
H          5.02535        3.17921        2.11900
H          3.69469        5.32326       -0.69498
H          2.47018        4.16768       -1.22056
H          4.17164        3.83195       -1.50021
H          6.40000        1.00049       -2.04915
H          4.71481        1.55598       -2.19883
H          6.01821        2.70717       -1.81205
