111
-148.55455273
P         -2.42672        2.35747       -0.06036
P         -0.00521        0.37791        0.48304
C         -1.75272        2.19798        1.61189
C         -0.73689        1.29877        1.85148
C         -2.60666        4.12714       -0.56248
C         -1.87446        4.37662       -1.86307
C         -2.27472        2.94222        2.65041
H         -3.05477        3.65898        2.45176
C         -1.79257        2.76423        3.93564
H         -2.20108        3.34303        4.74788
C         -0.79655        1.83830        4.17939
H         -0.42855        1.69118        5.18146
C         -0.26847        1.10194        3.13413
H          0.50377        0.36921        3.31006
Pd        -1.23025        0.92523       -1.41922
Cl        -2.75422        1.26213       -3.03148
Cl        -0.06471       -0.62624       -2.55489
C         -4.13538        4.31426       -0.65894
C         -4.18881        1.79566       -0.19453
H         -0.81007        4.14625       -1.77116
H         -2.27939        3.74649       -2.65739
H         -1.96970        5.41664       -2.18460
H         -4.36620        5.04568       -1.44710
H         -4.51861        4.75392        0.27359
H         -4.18109        0.88913       -0.81514
C         -4.86586        2.96905       -0.93105
C         -4.79086        1.50037        1.16330
H         -2.17912        4.73585        0.24585
H         -5.92221        3.03223       -0.63151
H         -4.87462        2.77341       -2.01346
H         -4.85081        2.40888        1.76425
H         -5.80376        1.10051        1.07466
H         -4.18786        0.77884        1.71888
C         -1.07298       -4.03965        0.67107
C          0.28374       -3.64921        0.81025
C          0.58734       -2.29972        0.74908
C         -0.40140       -1.35911        0.63220
C         -1.72222       -1.72303        0.60381
C         -2.09526       -3.05630        0.65200
O         -1.40420       -5.41264        0.51960
C          1.42481       -4.66389        0.98485
H          1.60871       -1.96351        0.77522
H         -2.46158       -0.94475        0.52110
C         -3.58935       -3.41426        0.62912
C          4.48969        1.08288        0.02896
C          3.79167        0.26298       -0.89543
C          2.42481        0.11768       -0.73581
C          1.76181        0.67097        0.32791
C          2.45435        1.36818        1.28470
C          3.82336        1.55686        1.18977
O          5.82032        1.49028       -0.24668
C          4.46021       -0.49079       -2.05762
H          1.84794       -0.42102       -1.46657
H          1.91082        1.78055        2.11554
C          4.53829        2.25016        2.36269
C          2.59963       -4.03628        1.76970
C          0.95561       -5.89172        1.78615
C          1.93804       -5.09604       -0.39711
C         -4.04780       -3.57792       -0.82832
C         -3.86446       -4.70271        1.42511
C         -4.43079       -2.29392        1.28076
C         -1.41983       -5.86196       -0.82968
H          2.25260       -3.60596        2.70875
H          3.35302       -4.78788        2.00444
H          3.09671       -3.25494        1.19679
H          0.17721       -6.43681        1.25816
H          1.77959       -6.58259        1.96286
H          0.55388       -5.58847        2.75239
H          2.28549       -4.23401       -0.96520
H          2.76746       -5.79670       -0.30450
H          1.15508       -5.57793       -0.97690
H         -3.88299       -2.65772       -1.38863
H         -3.49823       -4.37080       -1.32914
H         -5.10917       -3.81921       -0.87937
H         -3.36798       -5.56009        0.97795
H         -3.50446       -4.60503        2.44875
H         -4.93141       -4.92148        1.46008
H         -4.04627       -2.04288        2.26900
H         -4.43372       -1.39233        0.67078
H         -5.46912       -2.60485        1.39397
H         -2.41328       -6.23305       -1.08073
H         -1.15345       -5.04749       -1.50462
H         -0.71223       -6.68206       -0.95012
C          5.88287        2.68978       -1.00037
C          5.99114       -0.54769       -1.91762
C          3.95514       -1.95059       -2.07735
C          4.08903        0.18762       -3.38664
C          4.04079        1.64947        3.69658
C          6.06288        2.04603        2.32134
C          4.21989        3.75405        2.33954
H          6.27325       -0.96263       -0.95059
H          6.43403       -1.16797       -2.69651
H          6.43169        0.44326       -1.99645
H          4.46200       -2.52695       -2.85079
H          4.14460       -2.43414       -1.11961
H          2.88687       -2.00690       -2.27936
H          3.00889        0.19969       -3.52926
H          4.43901        1.21782       -3.41339
H          4.53257       -0.34014       -4.23045
H          2.98636        1.85920        3.86797
H          4.17605        0.56825        3.70543
H          4.59362        2.06415        4.53914
H          6.53924        2.46070        3.20943
H          6.30723        0.98570        2.26773
H          6.50280        2.53379        1.45473
H          4.57081        4.21662        1.41911
H          4.69668        4.26577        3.17518
H          3.14616        3.92565        2.40943
H          5.36148        2.56369       -1.94790
H          5.41484        3.50309       -0.44840
H          6.92647        2.93928       -1.19315
