105
-153.06345744
Cl        -0.14004        3.03513        2.64018
Pd        -0.36282        1.85758        0.74506
P         -0.70241        0.52751       -1.19558
N          0.46979       -0.74439       -1.53322
C          0.58714       -2.12554       -1.30680
C          0.05329       -2.79662       -0.17416
C          0.40865       -4.14125        0.06457
C          0.06450       -4.78525        1.38713
C         -0.01980       -6.31520        1.30267
C          1.26795       -6.88099        0.69519
C          1.51942       -6.30649       -0.71031
C          1.17787       -4.84246       -0.86847
C          1.65286       -4.17614       -1.99086
C          1.39101       -2.84561       -2.18903
H          1.80040       -2.33406       -3.04306
H          2.25508       -4.71647       -2.70169
H          2.56934       -6.45375       -0.99391
H          2.11419       -6.63149        1.34770
H         -0.21963       -6.75613        2.28952
H          0.83575       -4.50135        2.11334
C         -0.71114       -2.05401        0.85642
C         -0.03240       -1.06844        1.61109
C         -0.70353       -0.43104        2.65168
C         -2.00999       -0.73885        2.93193
C         -2.70224       -1.69512        2.19625
C         -4.12898       -1.99864        2.59412
C         -4.86794       -3.00524        1.69164
C         -3.91574       -4.06577        1.12877
C         -2.78774       -3.39091        0.33770
C         -2.05184       -2.35796        1.15239
H         -2.09102       -4.13711       -0.06064
H         -4.45545       -4.79324        0.50606
H         -5.33978       -2.47109        0.85829
H         -4.68475       -1.05332        2.63611
H         -2.51801       -0.23253        3.73512
H         -0.18339        0.32144        3.21784
N          1.27234       -0.72490        1.26958
P          1.77355        0.96244        1.22418
C          2.56669        1.28349       -0.35483
C          3.40424        0.33901       -0.90235
C          3.86982        0.50049       -2.19473
C          3.50780        1.61239       -2.94187
C          2.70058        2.57623       -2.35512
C          2.22704        2.40888       -1.06782
H          1.57658        3.14710       -0.62634
H          2.42443        3.44900       -2.92190
C          4.00442        1.78461       -4.33492
H          4.51211       -0.24320       -2.63509
H          3.66159       -0.54156       -0.33583
C          2.93205        1.26560        2.55855
C          2.78730        2.33075        3.41418
C          3.71349        2.54228        4.41769
C          4.78916        1.67980        4.57842
C          4.92098        0.60889        3.70456
C          3.99222        0.40164        2.69953
H          4.08698       -0.43523        2.02577
H          5.75592       -0.06184        3.81449
C          5.79981        1.92154        5.64527
H          3.60408        3.37882        5.08661
H          1.93628        2.98060        3.30600
H          1.65130       -1.17468        0.44347
H          1.30989       -0.24132       -1.79463
C         -0.54763        1.63485       -2.60864
C         -0.91731        2.95785       -2.57133
C         -0.73309        3.76242       -3.67880
C         -0.18699        3.24510       -4.84515
C          0.17424        1.90562       -4.87295
C         -0.00986        1.10570       -3.75922
H          0.27835        0.06716       -3.77922
H          0.60895        1.49452       -5.76800
C          0.04818        4.11899       -6.02754
H         -1.01180        4.80177       -3.64324
H         -1.35505        3.35863       -1.67457
C         -2.33954       -0.18949       -1.31993
C         -3.39308        0.20387       -0.52999
C         -4.64760       -0.33988       -0.73071
C         -4.86159       -1.27176       -1.73787
C         -3.79050       -1.64736       -2.53658
C         -2.53314       -1.10823       -2.32480
H         -1.69634       -1.39969       -2.94012
H         -3.94536       -2.36933       -3.32004
C         -6.20686       -1.87101       -1.95835
H         -5.47253       -0.03170       -0.11144
H         -3.23970        0.95737        0.22259
Cl        -2.24405        2.94641        0.18835
H          0.93797       -6.87429       -1.44661
H         -0.87345       -6.59682        0.67347
H          1.23360       -7.97926        0.66765
H         -0.86662       -4.37206        1.78889
H         -3.48475       -4.64375        1.95572
H         -3.20841       -2.89906       -0.54342
H         -4.11945       -2.37414        3.62449
H         -5.69636       -3.47979        2.23607
H          4.05759        0.82617       -4.85327
H          3.34462        2.43511       -4.91093
H          5.00140        2.22712       -4.33933
H          5.33211        2.32422        6.54483
H          6.30979        0.99805        5.92303
H          6.55411        2.63452        5.30967
H         -0.02250        3.55170       -6.95665
H         -0.68659        4.92389       -6.07478
H          1.04021        4.57064       -5.98347
H         -6.54262       -1.70521       -2.98293
H         -6.18590       -2.94724       -1.78062
H         -6.95130       -1.43659       -1.28979
