100
-131.97257872
C         -1.55626        3.91591       -1.35642
C         -2.30464        2.65869       -1.45987
C         -0.16671        3.61601       -1.36909
C          0.01943        2.14333       -1.49692
C          1.18018        1.58576       -2.25212
C         -1.37150        1.57123       -1.53487
C         -1.78521        0.18485       -1.99657
C         -0.87991       -0.42950       -3.04566
Cl         1.08572       -0.46306        2.72089
Cl        -1.75575       -1.61244        2.28897
C          3.24461        0.61399       -3.88024
C          2.50508        1.70662       -4.28826
C          2.97145        0.01683       -2.65804
C          1.49875        2.18821       -3.48911
C          1.95402        0.47534       -1.85488
H         -3.38810        2.57056       -1.56118
H          0.63978        4.35237       -1.40392
H          0.06176       -0.74972       -2.60160
H         -1.33407       -1.30419       -3.51660
H         -0.65025        0.28629       -3.83834
H          4.04202        0.23753       -4.49984
H          2.71880        2.17994       -5.23294
H          3.58732       -0.80339       -2.32739
H          0.91449        3.03245       -3.81252
H         -1.99352        4.91744       -1.33776
P          1.85398       -0.27286       -0.21423
H         -2.78486        0.29413       -2.43225
P         -2.03468       -0.95985       -0.56094
H         -3.05077       -2.81940       -1.74653
C         -1.94385       -3.79352       -0.15785
C         -2.11381       -2.68875       -1.20583
C         -3.18189       -3.95796        0.72455
H         -3.66467        0.64164        0.17622
C         -4.91228       -1.03079       -0.36642
C         -3.62692       -0.44661        0.22550
H         -4.82327       -2.13028       -0.34588
C         -6.11506       -0.64099        0.49896
H          3.56353       -1.92183       -0.62723
H          2.78220        0.57049        1.85586
C          3.64697        3.15887        1.40494
C          2.75169        2.26673        0.52588
C          3.00591        0.77959        0.80434
C          4.48321        0.44291        0.55078
C          5.40955        1.32848        1.41044
C          5.13299        2.82589        1.17135
H          3.39702        2.99448        2.46041
H          3.44582        4.22265        1.21582
H          2.97178        2.46701       -0.53006
H          1.68966        2.50786        0.64858
H          4.67685       -0.62038        0.74227
H          4.70413        0.59786       -0.51196
H          5.24973        1.09534        2.47052
H          6.46457        1.09114        1.21429
H          5.40475        3.08462        0.14019
H          5.77650        3.44821        1.80925
C          2.30956       -4.29156       -1.34974
C          1.73610       -2.86320       -1.25906
C          2.53267       -2.00733       -0.26563
C          2.56842       -2.67233        1.11924
C          3.15279       -4.09570        1.03722
C          2.35401       -4.95635        0.03950
H          3.32485       -4.24716       -1.76306
H          1.73181       -4.90075       -2.05872
H          0.69434       -2.90524       -0.92479
H          1.70842       -2.38420       -2.24717
H          3.12458       -2.04999        1.83302
H          1.54942       -2.72798        1.51809
H          4.19961       -4.03995        0.71389
H          3.17572       -4.56596        2.03027
H          1.33038       -5.08542        0.41289
H          2.77269       -5.97059       -0.02534
H         -1.09858       -3.50413        0.49226
C         -1.59219       -5.12514       -0.82892
H         -3.56656       -0.70132        1.28352
C         -5.13968       -0.60975       -1.81878
H         -1.31966       -2.77335       -1.94802
H         -3.03088       -4.73195        1.47865
H         -4.04622       -4.24971        0.12752
H         -3.43040       -3.03559        1.24806
H         -1.42149       -5.91189       -0.09241
H         -2.40464       -5.45269       -1.47829
H         -0.69553       -5.04212       -1.44429
H         -6.24249        0.44198        0.51204
H         -7.04066       -1.07703        0.11987
H         -5.98843       -0.96922        1.53192
H         -5.14422        0.47682       -1.91015
H         -4.37044       -1.00335       -2.48319
H         -6.10057       -0.97136       -2.18876
Fe        -1.06494        2.68450        0.18337
C         -2.60672        2.91268        1.56151
C         -1.77651        4.10034        1.47089
C         -0.40625        3.73054        1.77987
C         -0.38727        2.30959        2.06308
C         -1.73579        1.80449        1.89433
H         -3.68809        2.86599        1.41479
H         -2.13184        5.11209        1.26050
H          0.44618        4.41191        1.84157
H          0.46820        1.71894        2.39327
H         -2.04176        0.77723        2.09991
Pd        -0.17580       -0.81252        0.86649
