171
-217.83507400
P         -1.48815        0.16291       -0.22247
P          1.66917       -0.72227        0.20893
C         -0.66979        0.67683       -1.74872
C          0.85012       -1.96090       -0.82486
C          0.03554       -0.27753       -2.47054
C          0.68993        0.10260       -3.65826
C          0.57859        1.41140       -4.09756
C         -0.12286        2.34794       -3.36757
C         -0.73977        1.97619       -2.18976
C          0.92954       -3.24594       -0.34242
C          0.28516       -4.27756       -0.99721
C         -0.46574       -4.00570       -2.12056
C         -0.57492       -2.71611       -2.61268
C          0.11434       -1.67171       -1.96812
Cl         1.16528       -0.38102        3.43829
Cl        -1.97428       -1.06084        2.85885
C         -1.44025       -2.46892       -3.79828
C          1.48677       -0.88034       -4.44352
H         -0.18302        3.36812       -3.71007
H         -1.26504        2.71046       -1.60562
H          1.49480       -3.43766        0.55787
H          0.35863       -5.28548       -0.62275
H          1.05279        1.69394       -5.02197
H         -0.98872       -4.80126       -2.62423
C         -4.65276       -2.89841       -1.31132
C         -3.81459       -3.16526       -0.23490
C         -2.85157       -2.21999        0.08838
C         -2.73392       -1.06138       -0.63602
C         -3.56801       -0.81574       -1.69887
C         -4.54859       -1.73147       -2.06009
H         -5.41350       -3.61101       -1.56478
H         -2.20254       -2.37954        0.93066
H         -3.45203        0.09909       -2.25351
C         -3.73756        3.72812        1.52299
C         -3.87568        3.42048        0.17611
C         -3.19520        2.31168       -0.31189
C         -2.36851        1.57295        0.50081
C         -2.25107        1.89869        1.83109
C         -2.93616        2.97639        2.37171
H         -4.27774        4.56912        1.91504
H         -3.30459        2.02147       -1.34141
H         -1.63894        1.29723        2.47599
C          5.76347       -2.37469        1.21908
C          5.29455       -2.45844       -0.08603
C          4.02353       -1.96325       -0.35035
C          3.26810       -1.40948        0.65423
C          3.74753       -1.33780        1.93671
C          5.00974       -1.82387        2.24810
H          6.74683       -2.74723        1.44020
H          3.60854       -2.00740       -1.34313
H          3.11791       -0.90592        2.69214
C          2.70592        3.44970       -1.23352
C          1.78109        3.32264       -0.20377
C          1.43323        2.04012        0.20069
C          1.99319        0.93925       -0.40565
C          2.91620        1.08655       -1.41183
C          3.29306        2.35087       -1.84735
H          3.00247        4.42999       -1.55559
H          0.74008        1.90313        1.01169
H          3.35581        0.20387       -1.84181
Pd        -0.17076       -0.53588        1.63628
C         -5.04641       -5.36795        0.10837
C         -3.94583       -4.42568        0.63197
C         -4.29918       -4.00902        2.07203
C         -2.60966       -5.18997        0.62969
H         -5.11565       -6.26250        0.72722
H         -6.02124       -4.88099        0.12473
H         -4.83529       -5.68778       -0.91194
H         -4.41484       -4.88170        2.71435
H         -3.52244       -3.37824        2.50279
H         -5.23290       -3.44756        2.09193
H         -2.33593       -5.47990       -0.38422
H         -1.80328       -4.57974        1.03460
H         -2.67642       -6.09520        1.23278
C         -6.46409       -0.26672       -2.70497
C         -5.52880       -1.38750       -3.19212
C         -6.38094       -2.60635       -3.59625
C         -4.75947       -0.90812       -4.43886
H         -5.89714        0.62186       -2.43052
H         -7.17733        0.01387       -3.47975
H         -7.02518       -0.58711       -1.82732
H         -5.74864       -3.44226       -3.89540
H         -7.02042       -2.93170       -2.77615
H         -7.02973       -2.36242       -4.43745
H         -4.17399       -0.01346       -4.23211
H         -4.08134       -1.68152       -4.79684
H         -5.44755       -0.66850       -5.24943
C         -4.30795        5.76237       -0.61901
C         -4.76204        4.29370       -0.72323
C         -6.22527        4.16549       -0.26504
C         -4.66809        3.86760       -2.20198
H         -4.41414        6.14235        0.39616
H         -3.26138        5.86227       -0.90654
H         -4.90005        6.40054       -1.27474
H         -6.34546        4.49699        0.76584
H         -6.88467        4.76750       -0.89000
H         -6.55691        3.12889       -0.32370
H         -3.64077        3.92528       -2.56162
H         -5.02675        2.84882       -2.34243
H         -5.27598        4.51766       -2.83111
C         -3.62290        4.50516        4.28798
C         -2.79770        3.27288        3.87169
C         -1.31878        3.54089        4.20473
C         -3.29406        2.05482        4.67351
H         -4.68381        4.35157        4.09154
H         -3.51053        4.70336        5.35385
H         -3.29597        5.39529        3.75067
H         -0.69657        2.67820        3.96954
H         -0.94668        4.39185        3.63535
H         -1.19137        3.76281        5.26400
H         -4.33301        1.83244        4.43159
H         -2.70317        1.16693        4.45157
H         -3.22776        2.23934        5.74545
C          7.45468       -2.21178       -1.33086
C          6.17916       -3.06159       -1.18594
C          5.45386       -3.09032       -2.54636
C          6.55468       -4.50544       -0.80488
H          7.20383       -1.18121       -1.58171
H          8.02903       -2.19998       -0.40521
H          8.09796       -2.60420       -2.11827
H          4.54218       -3.68517       -2.49215
H          5.19129       -2.08457       -2.87375
H          6.08982       -3.53010       -3.31450
H          7.16443       -4.96758       -1.58108
H          7.12104       -4.53624        0.12510
H          5.65963       -5.11296       -0.67214
C          6.86638       -0.91368        3.66611
C          5.58170       -1.76216        3.67152
C          5.90184       -3.18902        4.15347
C          4.58159       -1.12760        4.65840
H          7.62677       -1.35029        3.01965
H          6.65979        0.09412        3.30627
H          7.28622       -0.83494        4.66879
H          5.00560       -3.80898        4.14053
H          6.64701       -3.66475        3.51703
H          6.29076       -3.17884        5.17153
H          4.99873       -1.09386        5.66466
H          4.33813       -0.10580        4.36822
H          3.65668       -1.70212        4.70384
C          1.76148        5.86528       -0.01648
C          1.20644        4.53926        0.53850
C          1.58648        4.43864        2.02748
C         -0.32406        4.56076        0.39351
H          2.84562        5.91067        0.08519
H          1.50565        5.98762       -1.06884
H          1.34413        6.71453        0.52450
H          2.66937        4.41011        2.14634
H          1.20813        5.29421        2.58645
H          1.17933        3.53531        2.47936
H         -0.75953        5.39313        0.94604
H         -0.61183        4.66573       -0.65185
H         -0.76389        3.64236        0.77484
C          4.88496        1.21629       -3.47672
C          4.37931        2.55847       -2.91267
C          5.57162        3.29645       -2.27630
C          3.81293        3.39545       -4.07368
H          4.07191        0.65129       -3.93012
H          5.64263        1.37861       -4.24317
H          5.33505        0.60652       -2.69358
H          5.27641        4.27612       -1.90225
H          5.97392        2.72611       -1.43916
H          6.37218        3.44289       -3.00121
H          2.96014        2.89470       -4.52888
H          3.48259        4.37602       -3.73340
H          4.56534        3.54777       -4.84731
H         -2.41824       -2.93233       -3.65977
H          1.96731       -1.60922       -3.78882
H         -0.99623       -2.88958       -4.70157
H         -1.60021       -1.40268       -3.96284
H          2.27071       -0.38485       -5.01784
H          0.85427       -1.42227       -5.14736
