111
-148.55431594
P         -2.60838        2.02508        0.89665
P          0.11340        0.46212        0.45231
C         -1.51450        1.70029        2.30662
C         -0.30782        1.06809        2.09748
C         -3.46522        3.65825        1.05514
C         -2.84633        4.70496        0.15475
C         -1.88210        2.07387        3.58353
H         -2.83565        2.54847        3.74682
C         -1.03237        1.82120        4.64680
H         -1.31892        2.11259        5.64411
C          0.18012        1.19412        4.43253
H          0.84016        0.99527        5.26078
C          0.54159        0.81156        3.15326
H          1.47572        0.30386        2.96964
Pd        -1.34595        1.55925       -0.98074
Cl        -3.00413        2.44821       -2.19522
Cl         0.10220        0.99346       -2.60509
C         -4.92804        3.30556        0.72849
C         -4.06962        0.89291        0.80340
H         -3.35431        5.66712        0.25330
H         -1.78913        4.85326        0.38732
H         -2.91167        4.40535       -0.89183
H         -5.09468        3.45638       -0.34708
H         -5.61382        4.00176        1.23499
H         -4.11373        0.53965       -0.23563
C         -5.25516        1.83067        1.10035
C         -3.92860       -0.27046        1.76086
H         -3.37367        3.95662        2.10713
H         -5.49580        1.76814        2.17052
H         -6.15795        1.48442        0.57460
H         -3.81547        0.08380        2.78715
H         -4.80375       -0.92356        1.72849
H         -3.04935       -0.87262        1.52315
C         -1.14899       -3.89226        0.01202
C         -1.04048       -3.32416        1.30747
C         -0.64976       -1.99998        1.41292
C         -0.44250       -1.23455        0.29595
C         -0.64544       -1.75117       -0.95545
C         -1.04265       -3.06391       -1.13422
O         -1.31919       -5.29438       -0.13648
C         -1.29707       -4.13249        2.58853
H         -0.48682       -1.54958        2.37592
H         -0.46762       -1.10777       -1.79905
C         -1.31884       -3.56684       -2.55909
C          4.54230        0.68901       -0.57870
C          3.91202       -0.57261       -0.41335
C          2.56131       -0.59148       -0.11186
C          1.86290        0.56848        0.09984
C          2.49299        1.78417        0.06246
C          3.84416        1.87732       -0.23231
O          5.83297        0.76511       -1.16226
C          4.63317       -1.92486       -0.54429
H          2.03158       -1.52708       -0.05407
H          1.91086        2.66938        0.25625
C          4.50288        3.26533       -0.15791
C          0.01351       -4.79430        3.04059
C         -1.80284       -3.21377        3.72430
C         -2.38107       -5.20149        2.36073
C         -0.00858       -4.07324       -3.18095
C         -2.37674       -4.68497       -2.55993
C         -1.87414       -2.42212       -3.43824
C         -0.09767       -6.01485       -0.24442
H         -0.13276       -5.36414        3.95783
H          0.39474       -5.47263        2.28107
H          0.77992       -4.04253        3.22822
H         -1.03332       -2.51778        4.05483
H         -2.67037       -2.63912        3.40162
H         -2.09673       -3.80101        4.59400
H         -3.30035       -4.74396        1.99652
H         -2.06274       -5.93924        1.62832
H         -2.60884       -5.73192        3.28498
H          0.73263       -3.27526       -3.21902
H          0.41421       -4.88961       -2.60002
H         -0.17143       -4.43121       -4.19716
H         -2.61871       -4.99493       -3.57621
H         -2.02738       -5.56303       -2.02280
H         -3.29446       -4.34453       -2.08147
H         -1.12400       -1.65565       -3.62636
H         -2.19471       -2.79986       -4.40874
H         -2.73307       -1.94971       -2.96231
H          0.75300       -5.33695       -0.16219
H         -0.04422       -6.76268        0.54666
H         -0.05921       -6.53067       -1.20366
C          5.79031        0.86514       -2.57601
C          4.20800       -2.60458       -1.85671
C          6.16406       -1.77740       -0.51067
C          4.24045       -2.83386        0.64228
C          4.05395        4.10850       -1.36282
C          4.06641        3.97207        1.14464
C          6.03923        3.18456       -0.13003
H          4.47716       -1.99832       -2.71939
H          4.68865       -3.57643       -1.96569
H          3.12968       -2.75889       -1.88326
H          6.47829       -1.23629        0.38115
H          6.65269       -2.75147       -0.50772
H          6.52694       -1.23034       -1.37748
H          4.45371       -2.34152        1.59065
H          3.18208       -3.08922        0.62556
H          4.79890       -3.76924        0.61611
H          2.96949        4.21147       -1.38353
H          4.48576        5.10811       -1.32145
H          4.36055        3.64945       -2.30059
H          4.30130        3.35691        2.01283
H          4.58031        4.92610        1.25974
H          2.99733        4.17713        1.15614
H          6.43050        2.78882       -1.06420
H          6.37523        2.53271        0.67561
H          6.48182        4.16882        0.02133
H          6.80769        0.92226       -2.96357
H          5.29246       -0.00644       -2.99758
H          5.24157        1.75788       -2.87105
