59
-75.80025552
Cl         1.57652        0.57188        2.39215
P          1.52781        0.13969       -0.85333
P         -1.60519       -0.28728       -0.73893
C          0.51469        0.25032       -2.39549
H          0.17500        1.28144       -2.51529
H          1.15103        0.01408       -3.25397
C         -0.65976       -0.67841       -2.27757
H         -0.32213       -1.71581       -2.20712
H         -1.33608       -0.60942       -3.13528
C          2.77004       -1.23093       -0.94469
H          2.62290       -1.73760       -1.90673
C          2.65091        1.58530       -0.55844
H          2.25046        2.13421        0.30315
C         -2.83627       -1.60499       -0.31406
H         -2.77078       -1.74511        0.77184
C         -2.74619        1.15830       -0.96167
H         -2.72931        1.40018       -2.03116
C          4.11756       -0.48022       -0.90814
H          4.87239       -1.09913       -0.40143
H          4.49372       -0.33607       -1.93178
C          3.98789        0.90142       -0.21041
H          4.82968        1.55218       -0.48534
H          4.06221        0.76555        0.87889
C         -4.17845       -0.95442       -0.68839
H         -4.42540       -1.22225       -1.72508
H         -4.99108       -1.37079       -0.07352
C         -4.11946        0.59049       -0.55226
H         -4.31612        0.86804        0.49258
H         -4.92054        1.06688       -1.13765
C          2.60023       -2.22715        0.19828
H          2.58857       -1.67376        1.14669
H          3.48994       -2.87023        0.25037
C          2.71757        2.50498       -1.77389
H          3.13692        1.94264       -2.61860
H          1.69799        2.77102       -2.08191
C         -2.55899       -2.92313       -1.02790
H         -2.60501       -2.75599       -2.11197
H         -1.52578       -3.23442       -0.82620
C         -2.33716        2.37606       -0.13629
H         -3.16379        3.10027       -0.14141
H         -2.23090        2.06994        0.91273
C          1.35370       -3.08877        0.06832
H          0.45039       -2.47980        0.04873
H          1.25320       -3.79255        0.89766
H          1.36880       -3.66912       -0.85617
C          3.51896        3.77604       -1.52826
H          4.56038        3.55775       -1.28780
H          3.10807        4.34332       -0.69091
H          3.51930        4.43358       -2.40070
C         -3.52098       -4.03051       -0.62417
H         -3.47482       -4.21910        0.45009
H         -3.29995       -4.97156       -1.13307
H         -4.55326       -3.76584       -0.85996
C         -1.06342        3.04954       -0.62068
H         -0.81808        3.93488       -0.02962
H         -0.20962        2.37557       -0.55810
H         -1.15324        3.36421       -1.66205
Cl        -1.62899       -0.12614        2.41413
Pd         0.00877        0.03199        0.88646
