105
-153.06038639
Cl         0.28569        2.70413        2.79222
Pd        -0.14213        1.66509        0.83496
P         -0.78201        0.54162       -1.14389
N          0.33025       -0.70494       -1.68143
C          0.54104       -2.06462       -1.43215
C          0.06746       -2.76486       -0.29366
C          0.44910       -4.10818       -0.09401
C          0.08809       -4.79325        1.20308
C          0.10758       -6.32571        1.11094
C          1.42454       -6.80756        0.49451
C          1.62236       -6.22084       -0.91331
C          1.22591       -4.76965       -1.04812
C          1.65450       -4.07334       -2.17043
C          1.33685       -2.75226       -2.34794
H          1.69662       -2.22153       -3.21246
H          2.25792       -4.58366       -2.90208
H          2.66979       -6.32907       -1.22276
H          2.25846       -6.49986        1.13797
H         -0.05526       -6.78213        2.09758
H          0.79582       -4.46225        1.97259
C         -0.69396       -2.07685        0.77558
C          0.03317       -1.29064        1.70574
C         -0.65211       -0.71977        2.78121
C         -1.99689       -0.93081        2.94544
C         -2.71682       -1.73824        2.07102
C         -4.17844       -1.98309        2.37205
C         -4.91198       -2.92096        1.39275
C         -3.96765       -3.96532        0.78754
C         -2.80249       -3.26689        0.07451
C         -2.06093       -2.32455        0.98639
H         -2.11354       -4.00246       -0.35700
H         -4.50481       -4.63705        0.10307
H         -5.35371       -2.33038        0.58151
H         -4.68873       -1.01275        2.41792
H         -2.51148       -0.47652        3.77513
H         -0.11147       -0.09060        3.46535
N          1.42306       -1.08924        1.52110
P          1.90326        0.55981        1.13073
C          2.68155        0.67126       -0.47366
C          2.44613        1.77328       -1.26224
C          2.92144        1.79689       -2.56001
C          3.64215        0.72534       -3.06866
C          3.88454       -0.36888       -2.24879
C          3.40483       -0.39532       -0.95127
H          3.54504       -1.26205       -0.32472
H          4.43147       -1.21004       -2.63925
C          4.10219        0.73034       -4.48463
H          2.71750        2.64346       -3.19339
H          1.86465        2.59606       -0.87691
C          2.87393        1.38502        2.39014
C          2.83579        0.94351        3.69104
C          3.56264        1.60587        4.66385
C          4.32432        2.72070        4.34025
C          4.35371        3.14806        3.01968
C          3.62571        2.48425        2.04872
H          3.63926        2.82058        1.02428
H          4.94785        4.00655        2.75675
C          5.12342        3.42332        5.38208
H          3.53833        1.26222        5.68386
H          2.23123        0.08900        3.94650
H          2.06405       -1.38544        2.25207
H          1.13172       -0.18719       -2.02332
C         -0.64551        1.83854       -2.38381
C         -0.98950        3.13869       -2.10103
C         -0.85240        4.11659       -3.06710
C         -0.37070        3.79895       -4.32967
C         -0.05535        2.47637       -4.60914
C         -0.19316        1.50098       -3.63799
H          0.05619        0.47473       -3.85373
H          0.30207        2.21517       -5.59054
C         -0.23851        4.84789       -5.37823
H         -1.12184        5.13528       -2.84617
H         -1.37697        3.38047       -1.12623
C         -2.45568       -0.07450       -1.31730
C         -2.68405       -0.90969       -2.38623
C         -3.96635       -1.35998       -2.65121
C         -5.02779       -0.97720       -1.84299
C         -4.78081       -0.11795       -0.78043
C         -3.50083        0.33399       -0.52452
H         -3.31759        1.03279        0.27226
H         -5.59968        0.20513       -0.16059
C         -6.40486       -1.46510       -2.13085
H         -4.14866       -2.01599       -3.48513
H         -1.85374       -1.20610       -3.00826
Cl        -2.13726        2.70884        0.83945
H          1.04297       -6.80450       -1.63872
H         -0.73053       -6.66200        0.48765
H          1.46281       -7.90582        0.46946
H         -0.89249       -4.44870        1.54993
H         -3.57368       -4.60635        1.58599
H         -3.18663       -2.69951       -0.77669
H         -4.24820       -2.39366        3.38667
H         -5.76266       -3.41009        1.88758
H          3.32879        0.33228       -5.14313
H          4.33942        1.74178       -4.81747
H          4.99838        0.12126       -4.61060
H          6.13328        3.01456        5.43719
H          5.20267        4.48927        5.16415
H          4.66434        3.32094        6.36634
H          0.57543        4.61579       -6.06655
H         -1.15764        4.93232       -5.95956
H         -0.02912        5.82278       -4.93572
H         -6.41144       -2.54564       -2.28161
H         -7.08648       -1.24082       -1.30921
H         -6.80146       -0.99620       -3.03236
