72
-108.39222773
Cl        -1.89392        0.69767        2.68677
Cl         0.75211       -1.08435        2.79342
P          1.14246       -1.06535       -0.21169
P         -2.21281        0.16369       -0.48601
C         -3.26616       -1.41094       -0.35101
C         -3.71999       -1.60174        1.09812
C         -4.47494       -1.30139       -1.27362
C         -3.26272        1.73002       -0.22378
C         -4.28683        1.57622        0.89650
C         -1.33874        0.47601       -2.13006
C         -1.36054       -0.67499       -3.11468
C          1.21233        0.27293       -1.44345
C          0.07496        1.01112       -1.99243
C          0.62920        2.07522       -2.83151
C          2.07547        1.96610       -2.81924
C          2.43622        0.83685       -1.98338
C         -2.42187       -2.61981       -0.73202
H         -2.87120       -1.61883        1.78157
H         -4.39936       -0.82041        1.42678
H         -4.17907       -1.08339       -2.29865
H         -5.15867       -0.52018       -0.94566
C         -2.27282        2.82494        0.13741
H         -4.75123        2.53737        1.12166
H         -3.82498        1.22001        1.81474
H         -1.92841        1.28736       -2.56660
H         -0.72386       -1.48481       -2.76653
H         -0.96354       -0.36650       -4.08404
H         -2.36459       -1.06209       -3.28322
H          0.04561        2.76098       -3.44861
H          2.77061        2.59443       -3.38053
Pd        -0.59158       -0.29441        1.16552
H          3.44625        0.48580       -1.76166
C         -3.99569        2.10651       -1.51796
H         -5.08949        0.89682        0.61577
H         -1.48537        2.89548       -0.61423
H         -2.76816        3.79603        0.20085
H         -1.81587        2.62346        1.10560
H         -4.48906        1.24745       -1.96919
H         -4.76050        2.85880       -1.31784
H         -3.32386        2.54118       -2.25739
H         -4.24906       -2.54939        1.21100
H         -5.03615       -2.23722       -1.28324
H         -1.53409       -2.67787       -0.10489
H         -2.98357       -3.54442       -0.58877
H         -2.11108       -2.59574       -1.77283
C          2.80590       -1.24712        0.48381
C          3.71120       -2.11671       -0.07394
C          4.88795       -2.01918        0.67001
C          4.65210       -1.08944        1.65229
O          3.38063       -0.60606        1.54581
H          3.53284       -2.75123       -0.92806
H          5.80129       -2.56744        0.50651
H          5.35939       -0.77376        2.40936
C          0.72848       -2.68605       -0.87788
C          0.72797       -3.80238       -0.07899
C          0.38463       -4.88504       -0.89068
C          0.19017       -4.38095       -2.15367
O          0.39482       -3.03010       -2.15911
H          0.95394       -3.82092        0.97584
H          0.29217       -5.91457       -0.58576
H         -0.08746       -4.95663       -3.02787
Fe         1.36232        2.20557       -0.90907
C          2.15397        4.00991       -0.38926
C          3.01388        2.92375        0.04535
C          2.25476        2.07737        0.94564
C          0.92252        2.62893        1.05729
C          0.85641        3.82227        0.23314
H          2.43882        4.83202       -1.05011
H          4.06073        2.78236       -0.23386
H          2.60540        1.15690        1.41201
H          0.13554        2.23651        1.70400
H          0.00855        4.50641        0.15381
