105
-153.06494529
Cl         0.00303        1.98130        3.07433
Pd        -0.44644        1.33139        0.96716
P         -1.11663        0.50892       -1.14771
N         -0.72301       -1.00075       -1.96868
C          0.18929       -1.99620       -1.62205
C          0.32037       -2.47751       -0.29538
C          1.27837       -3.47391       -0.01473
C          1.39440       -3.99709        1.39745
C          2.22039       -5.28522        1.53861
C          3.49152       -5.21776        0.68741
C          3.13835       -5.03095       -0.79541
C          2.08039       -3.98440       -1.03939
C          1.89466       -3.53277       -2.33997
C          0.96553       -2.56825       -2.62897
H          0.84623       -2.21576       -3.63863
H          2.50415       -3.94427       -3.12671
H          4.03588       -4.76732       -1.36964
H          4.10949       -4.37574        1.02386
H          2.46760       -5.47772        2.59218
H          1.83745       -3.21055        2.01904
C         -0.68071       -2.11723        0.73725
C         -0.26051       -1.52684        1.95969
C         -1.19551       -1.39106        2.98996
C         -2.49232       -1.80321        2.82617
C         -2.92382       -2.37598        1.63593
C         -4.35592       -2.84765        1.55326
C         -4.81652       -3.22749        0.13676
C         -3.73057       -4.02153       -0.59357
C         -2.43801       -3.19958       -0.70291
C         -2.01746       -2.53390        0.58525
H         -1.61894       -3.83643       -1.05969
H         -4.07934       -4.33769       -1.58692
H         -5.04154       -2.31765       -0.43301
H         -5.00864       -2.07037        1.96985
H         -3.19687       -1.68720        3.63234
H         -0.88670       -0.93221        3.91280
N          1.03747       -1.02909        2.14575
P          1.60867        0.18976        1.00823
C          2.61234       -0.35684       -0.35993
C          2.40253        0.21271       -1.59093
C          3.21531       -0.13664       -2.65367
C          4.24484       -1.05278       -2.48158
C          4.46070       -1.58885       -1.21841
C          3.64552       -1.23881       -0.15692
H          3.80836       -1.64657        0.82810
H          5.26906       -2.28454       -1.07176
C          5.12338       -1.42790       -3.62328
H          3.05103        0.29829       -3.62456
H          1.59828        0.91818       -1.71348
C          2.55427        1.48317        1.81971
C          3.25797        1.21185        2.96834
C          3.98930        2.21562        3.57729
C          4.01783        3.49541        3.03934
C          3.31674        3.74271        1.86675
C          2.58693        2.73783        1.25802
H          2.03994        2.92731        0.34733
H          3.34451        4.72788        1.43346
C          4.82021        4.57165        3.68379
H          4.54365        2.00997        4.47703
H          3.24097        0.21633        3.38127
H          1.19068       -0.59836        3.04836
H         -0.99968       -0.91120       -2.93831
C         -0.63325        1.87952       -2.21247
C         -0.90287        3.17331       -1.83566
C         -0.51733        4.22679       -2.64200
C          0.13698        3.99253       -3.84330
C          0.40377        2.68098       -4.21085
C          0.01382        1.63047       -3.40070
H          0.23066        0.61514       -3.68679
H          0.92251        2.48755       -5.13429
C          0.58068        5.12679       -4.70014
H         -0.72162        5.24016       -2.34112
H         -1.41894        3.35327       -0.90794
C         -2.91254        0.52454       -1.09042
C         -3.59372        0.78371       -2.25615
C         -4.97735        0.79267       -2.25865
C         -5.68710        0.55333       -1.08999
C         -4.98128        0.28537        0.07425
C         -3.59901        0.26169        0.06946
H         -3.04769        0.05559        0.97277
H         -5.52164        0.09781        0.98612
C         -7.17593        0.54028       -1.09239
H         -5.51449        0.98961       -3.17065
H         -3.03981        0.97938       -3.16104
Cl        -2.31448        2.59244        0.94650
H          2.79082       -5.98246       -1.21525
H          1.61511       -6.14229        1.21766
H          4.10919       -6.11507        0.83464
H          0.38514       -4.15393        1.79859
H         -3.52640       -4.94873       -0.04353
H         -2.56230       -2.42341       -1.46680
H         -4.47262       -3.71090        2.21941
H         -5.75828       -3.79341        0.16945
H          5.98131       -0.75744       -3.68895
H          5.49863       -2.44630       -3.51238
H          4.58204       -1.37682       -4.56908
H          5.83614        4.58816        3.28688
H          4.37450        5.55205        3.51000
H          4.88223        4.42386        4.76282
H          0.59556        4.84254       -5.75327
H         -0.08836        5.98239       -4.59817
H          1.58533        5.45026       -4.42444
H         -7.57329        0.87285       -0.13243
H         -7.57461        1.20226       -1.86234
H         -7.55399       -0.46506       -1.28331
