59
-75.79840022
Cl         1.33845        0.68139        2.37920
P          1.46117        0.04344       -0.79181
P         -1.72532       -0.20932       -0.81284
C          0.47353        0.39837       -2.31513
H          0.17487        1.44897       -2.30066
H          1.11679        0.25349       -3.18876
C         -0.73472       -0.49317       -2.34300
H         -0.43784       -1.54425       -2.37234
H         -1.37209       -0.30728       -3.21303
C          2.47756       -1.47304       -1.09693
H          2.08910       -1.89933       -2.03203
C          2.80880        1.28344       -0.50177
H          2.64095        1.69599        0.50102
C         -3.04528       -1.48027       -0.54545
H         -3.10076       -1.63234        0.53956
C         -2.78418        1.30538       -0.99870
H         -2.64210        1.65235       -2.02927
C          3.89290       -0.90200       -1.30912
H          4.64276       -1.64697       -1.00547
H          4.06754       -0.73177       -2.38206
C          4.09727        0.43423       -0.54168
H          4.90941        1.01326       -1.00247
H          4.43882        0.22546        0.48210
C         -4.30875       -0.76042       -1.04449
H         -4.42680       -0.95580       -2.11953
H         -5.20538       -1.18388       -0.56605
C         -4.21632        0.76933       -0.79908
H         -4.53239        0.98833        0.23014
H         -4.92273        1.31335       -1.44412
C          2.36593       -2.50545        0.02562
H          2.83199       -3.44517       -0.30291
H          1.30648       -2.74747        0.17874
C          2.77288        2.41209       -1.52695
H          2.97414        1.99253       -2.52143
H          1.75319        2.81543       -1.58247
C         -2.76188       -2.80660       -1.24009
H         -3.66503       -3.43159       -1.20269
H         -2.58625       -2.61936       -2.30727
C         -2.41922        2.41427       -0.01380
H         -3.22680        3.15966       -0.00663
H         -2.40810        1.99390        1.00036
C          2.98224       -2.07286        1.34647
H          4.06303       -1.94851        1.26452
H          2.80133       -2.80113        2.14043
H          2.57328       -1.12013        1.68047
C          3.74694        3.54052       -1.21678
H          4.78069        3.19201       -1.20976
H          3.54744        3.97193       -0.23400
H          3.68207        4.34893       -1.94872
C         -1.58838       -3.55318       -0.62685
H         -0.67949       -2.95321       -0.66251
H         -1.38296       -4.49389       -1.14271
H         -1.77411       -3.78628        0.42338
C         -1.09588        3.09960       -0.31729
H         -1.09400        3.52950       -1.32066
H         -0.88337        3.90753        0.38655
H         -0.26148        2.40089       -0.26327
Cl        -1.82820       -0.27827        2.34694
Pd        -0.15334       -0.04824        0.87274
