171
-217.83803480
P         -1.46757        0.24878       -0.38927
P          1.68986       -0.68625        0.37071
C         -0.45821        1.09548       -1.62087
C          1.06091       -1.66549       -1.01216
C          0.44869        0.34762       -2.36209
C          1.26885        0.99959       -3.30290
C          1.10840        2.36055       -3.50439
C          0.18742        3.08346       -2.77549
C         -0.58871        2.44747       -1.82651
C          1.06772       -3.02473       -0.80335
C          0.55049       -3.87996       -1.75703
C          0.01054       -3.36059       -2.91374
C         -0.02479       -1.99430       -3.13532
C          0.51857       -1.12384       -2.17176
Cl         0.62722       -0.98681        3.44778
Cl        -2.31293       -1.51407        2.28873
C         -0.65311       -1.48154       -4.38394
C          2.28334        0.24569       -4.08975
H          0.07702        4.14203       -2.94454
H         -1.29420        3.01124       -1.24079
H          1.47272       -3.41492        0.11883
H          0.56169       -4.94500       -1.59244
H          1.71213        2.85413       -4.24674
H         -0.40342       -4.01955       -3.65830
C         -4.14635       -2.67202       -2.58120
C         -3.48904       -3.10564       -1.43694
C         -2.69006       -2.19244       -0.76279
C         -2.54289       -0.91212       -1.23250
C         -3.18081       -0.50730       -2.37956
C         -4.00422       -1.38251       -3.07840
H         -4.79832       -3.35656       -3.09135
H         -2.18512       -2.47052        0.14396
H         -3.01338        0.49290       -2.73878
C         -4.16425        3.28275        1.68454
C         -3.33850        2.49734        2.47655
C         -2.51028        1.58325        1.84057
C         -2.51862        1.44774        0.47194
C         -3.36503        2.21850       -0.28815
C         -4.19612        3.16276        0.30183
H         -4.80879        4.00001        2.15847
H         -1.86472        0.95924        2.42789
H         -3.37214        2.08116       -1.35456
C          5.49868       -2.71911        1.76217
C          4.61222       -2.24911        2.72482
C          3.44409       -1.64103        2.28887
C          3.17815       -1.50789        0.95100
C          4.06478       -1.97584        0.01255
C          5.24517       -2.59671        0.40038
H          6.40576       -3.19549        2.08045
H          2.71960       -1.28540        2.99843
H          3.82722       -1.86525       -1.03273
C          2.87365        3.64149       -0.26520
C          3.64363        2.63189       -0.82656
C          3.23038        1.31993       -0.63205
C          2.10416        1.04358        0.10362
C          1.36595        2.05632        0.67203
C          1.73290        3.38354        0.48421
H          3.18267        4.66133       -0.40213
H          3.79275        0.49911       -1.04168
H          0.49877        1.80719        1.25623
Pd        -0.37316       -0.74454        1.45552
C         -5.14524       -4.78044       -0.58286
C         -3.66743       -4.54815       -0.94438
C         -2.80650       -4.83165        0.30302
C         -3.24279       -5.52330       -2.05784
H         -5.30203       -5.79343       -0.21269
H         -5.46469       -4.08401        0.19219
H         -5.79119       -4.63712       -1.44832
H         -1.74881       -4.67347        0.09336
H         -3.09359       -4.18720        1.13358
H         -2.92770       -5.86391        0.63072
H         -3.85343       -5.39701       -2.95097
H         -2.20282       -5.35768       -2.33729
H         -3.34277       -6.55766       -1.72944
C         -4.66819       -1.98105       -5.44042
C         -4.79753       -0.93542       -4.31531
C         -4.28681        0.41511       -4.85669
C         -6.27698       -0.78361       -3.92129
H         -5.19640       -1.65347       -6.33576
H         -3.62396       -2.13764       -5.70771
H         -5.08850       -2.94168       -5.14665
H         -4.82017        0.69414       -5.76531
H         -4.43835        1.21491       -4.13267
H         -3.22515        0.36389       -5.09706
H         -6.68377       -1.72802       -3.56065
H         -6.38995       -0.04624       -3.12658
H         -6.87753       -0.46026       -4.77133
C         -2.36314        1.69510        4.68905
C         -3.40149        2.60954        4.00734
C         -4.80512        2.18817        4.47854
C         -3.12546        4.06181        4.43788
H         -2.40978        1.79791        5.77293
H         -2.54499        0.64713        4.45158
H         -1.35022        1.94826        4.37717
H         -4.88449        2.23790        5.56433
H         -5.57339        2.83509        4.05640
H         -5.02217        1.16567        4.16998
H         -3.17442        4.16118        5.52212
H         -2.13352        4.37806        4.11857
H         -3.85233        4.75020        4.00883
C         -4.67213        5.53402       -0.33977
C         -5.11485        4.07152       -0.52642
C         -6.56994        3.90103       -0.05179
C         -5.05207        3.72720       -2.02784
H         -4.74182        5.83697        0.70445
H         -3.63774        5.66595       -0.65732
H         -5.29503        6.20890       -0.92655
H         -6.68536        4.19225        0.99141
H         -7.24764        4.51520       -0.64456
H         -6.88562        2.86220       -0.14667
H         -5.35852        2.69643       -2.20502
H         -5.71767        4.37248       -2.60098
H         -4.04468        3.86238       -2.42131
C          6.21227       -3.07789        4.52530
C          4.86738       -2.38555        4.23274
C          3.73835       -3.22254        4.86300
C          4.88977       -0.98416        4.87120
H          6.23437       -4.08462        4.10845
H          7.04427       -2.51118        4.10767
H          6.37755       -3.16273        5.59931
H          3.89984       -3.35327        5.93278
H          2.76871       -2.74448        4.72888
H          3.68988       -4.21019        4.40502
H          3.93678       -0.47344        4.73806
H          5.08768       -1.04582        5.94112
H          5.66592       -0.36737        4.41861
C          6.64932       -1.96217       -1.57884
C          6.20105       -3.12761       -0.67753
C          5.46788       -4.18442       -1.52497
C          7.45428       -3.77788       -0.06081
H          7.14825       -1.19183       -0.99126
H          7.34471       -2.30590       -2.34438
H          5.80029       -1.50281       -2.08367
H          4.59893       -3.75803       -2.02511
H          6.12519       -4.59521       -2.29110
H          5.12237       -5.00711       -0.89925
H          8.12102       -4.14726       -0.83994
H          8.01393       -3.06011        0.53868
H          7.18661       -4.62416        0.57159
C          5.86643        3.78533       -0.68813
C          4.92119        2.98303       -1.60223
C          4.55485        3.82584       -2.83626
C          5.66447        1.71776       -2.07287
H          6.11068        3.21452        0.20762
H          6.79798        4.02190       -1.20203
H          5.41317        4.72452       -0.37353
H          3.89823        3.26727       -3.50145
H          4.04116        4.74317       -2.55085
H          5.44651        4.10211       -3.39877
H          5.04454        1.12249       -2.74228
H          6.57377        1.98062       -2.61319
H          5.95183        1.09745       -1.22426
C          1.85277        5.21899        2.18016
C          0.96261        4.55247        1.11626
C         -0.33734        4.08018        1.78972
C          0.58940        5.58280        0.03329
H          2.13257        4.50143        2.95130
H          2.76898        5.60929        1.73823
H          1.33299        6.04720        2.66154
H         -0.98871        3.58595        1.07108
H         -0.13095        3.38811        2.60543
H         -0.88614        4.92616        2.20241
H          0.03448        6.41571        0.46483
H          1.47350        5.99152       -0.45375
H         -0.03632        5.12703       -0.73250
H         -0.01927       -1.67872       -5.24963
H          3.15197        0.86786       -4.30963
H         -0.83160       -0.40695       -4.33229
H         -1.61464       -1.96625       -4.55541
H          1.86743       -0.09352       -5.03923
H          2.63564       -0.62993       -3.54211
