111
-148.55090544
P         -1.66199        2.73157        0.51760
P         -0.42148       -0.18084        0.58700
C         -1.29178        1.94249        2.11471
C         -0.82078        0.64552        2.13889
C         -0.56051        4.17746        0.20345
C          0.20924        3.98333       -1.08559
C         -1.43291        2.63938        3.29787
H         -1.74473        3.66993        3.27488
C         -1.13658        2.02449        4.50208
H         -1.25160        2.56869        5.42528
C         -0.68505        0.71889        4.52260
H         -0.44853        0.24271        5.45988
C         -0.51453        0.03089        3.33484
H         -0.12466       -0.97496        3.32809
Pd        -1.60670        0.98974       -1.00123
Cl        -2.62701        2.35769       -2.45974
Cl        -1.47783       -0.76773       -2.39355
C         -1.54526        5.36547        0.17805
C         -3.32953        3.52963        0.36845
H          0.86244        4.83375       -1.29549
H          0.82790        3.08357       -1.04924
H         -0.47638        3.87497       -1.92838
H         -1.17721        6.13121       -0.52042
H         -1.56927        5.85204        1.16435
H         -3.88783        2.92793       -0.36186
C         -2.98435        4.91862       -0.20906
C         -4.08462        3.58102        1.67950
H          0.12336        4.24460        1.06008
H         -3.72536        5.65485        0.13521
H         -3.07412        4.89804       -1.30527
H         -5.09650        3.96923        1.54207
H         -4.16206        2.59041        2.13310
H         -3.58288        4.23758        2.39085
C         -0.55955       -4.72620        0.78934
C         -1.71447       -4.00504        0.39151
C         -1.65284       -2.62105        0.37826
C         -0.48440       -1.96511        0.66301
C          0.66332       -2.65985        0.94367
C          0.66971       -4.04456        0.97806
O         -0.64066       -6.12415        1.02753
C         -3.02187       -4.70015       -0.02026
H         -2.51929       -2.03156        0.13201
H          1.56294       -2.09907        1.13156
C          1.99489       -4.78206        1.22700
C          3.55836        1.41739       -0.94111
C          2.84101        0.45852       -1.70125
C          1.63463       -0.00205       -1.20293
C          1.18170        0.39133        0.02778
C          1.91395        1.24686        0.80797
C          3.12706        1.74944        0.36902
O          4.68612        2.07303       -1.50328
C          3.31793       -0.04963       -3.07000
H          1.00040       -0.64271       -1.79108
H          1.51456        1.53242        1.76486
C          3.93929        2.66513        1.29825
C         -3.78978       -3.84453       -1.05397
C         -2.74065       -6.05955       -0.68613
C         -3.91025       -4.89094        1.21806
C          3.18692       -3.95923        0.68642
C          2.18606       -4.99007        2.73676
C          2.01961       -6.13754        0.49726
C         -0.98249       -6.46545        2.36488
H         -3.14500       -3.57699       -1.89075
H         -4.64473       -4.39125       -1.45097
H         -4.17493       -2.92695       -0.61202
H         -3.66219       -6.52096       -1.04012
H         -2.07280       -5.93786       -1.53828
H         -2.27204       -6.75228        0.00848
H         -4.85074       -5.37343        0.95324
H         -3.41616       -5.50591        1.96646
H         -4.14117       -3.93053        1.67830
H          4.11137       -4.53334        0.74436
H          3.02762       -3.68640       -0.35636
H          3.34152       -3.04665        1.26014
H          3.12514       -5.50237        2.94447
H          2.20035       -4.03353        3.25871
H          1.37882       -5.58461        3.15782
H          2.98400       -6.63035        0.61789
H          1.25674       -6.80948        0.88263
H          1.83835       -6.00253       -0.56854
H         -1.90498       -7.04576        2.36976
H         -0.19264       -7.07844        2.79870
H         -1.11577       -5.56485        2.96557
C          4.37163        3.26130       -2.21906
C          2.74292        0.85318       -4.17217
C          4.85483       -0.07919       -3.14941
C          2.82839       -1.49598       -3.31301
C          3.65041        2.33534        2.78062
C          5.45044        2.46930        1.07951
C          3.55254        4.12957        1.04240
H          3.05497        0.51226       -5.15892
H          1.65346        0.84966       -4.14247
H          3.07248        1.88232       -4.05180
H          5.19017       -0.49806       -4.09787
H          5.27717        0.91856       -3.06337
H          5.26840       -0.68674       -2.34511
H          1.74707       -1.54224       -3.43240
H          3.26766       -1.90539       -4.22235
H          3.10988       -2.14445       -2.48397
H          2.63234        2.60149        3.06167
H          3.79519        1.27332        2.97720
H          4.31865        2.89139        3.43777
H          6.02914        3.07066        1.78018
H          5.72625        1.42475        1.22042
H          5.74634        2.75967        0.07442
H          2.49264        4.28749        1.23707
H          3.74586        4.41585        0.01179
H          4.11674        4.80080        1.68935
H          3.30140        3.46496       -2.16904
H          4.92252        4.09982       -1.79331
H          4.67186        3.15281       -3.26103
