59
-75.80251458
Cl         1.47535        0.46670        2.39886
P          1.44935        0.13570       -0.83608
P         -1.71844       -0.16287       -0.76571
C          0.45980        0.19667       -2.39232
H          0.15274        1.23199       -2.56035
H          1.09836       -0.09842       -3.23063
C         -0.74142       -0.69325       -2.24113
H         -0.43582       -1.73140       -2.08679
H         -1.39273       -0.66738       -3.12033
C          2.66019       -1.26266       -0.81239
H          2.85629       -1.52482       -1.85925
C          2.61235        1.56097       -0.59073
H          2.35350        1.99942        0.38080
C         -3.12995       -1.31226       -0.42071
H         -3.30477       -1.26167        0.66100
C         -2.68471        1.37308       -1.16234
H         -2.39942        1.66459       -2.18024
C          3.90498       -0.61796       -0.17971
H          3.84843       -0.73868        0.91119
H          4.81596       -1.15162       -0.49148
C          3.99940        0.89209       -0.52870
H          4.49066        1.00646       -1.50460
H          4.64647        1.41840        0.18910
C         -4.28924       -0.63712       -1.17047
H         -4.28011       -0.97610       -2.21598
H         -5.25619       -0.96664       -0.75960
C         -4.15662        0.90844       -1.11842
H         -4.61240        1.27576       -0.18877
H         -4.73203        1.37819       -1.93010
C          2.12367       -2.47139       -0.05763
H          1.17229       -2.77892       -0.50998
H          1.87600       -2.16854        0.96831
C          2.48601        2.60760       -1.69228
H          2.72013        2.13573       -2.65575
H          1.43964        2.92688       -1.77623
C         -2.85839       -2.75402       -0.83158
H         -3.80085       -3.31875       -0.81067
H         -2.53667       -2.77198       -1.88061
C         -2.38530        2.50298       -0.18041
H         -3.16460        3.27250       -0.27346
H         -2.48375        2.11334        0.84175
C          3.09205       -3.64448       -0.03997
H          2.68068       -4.50674        0.48985
H          4.03030       -3.37764        0.44958
H          3.33791       -3.96764       -1.05329
C          3.37755        3.81946       -1.46477
H          3.14091        4.30910       -0.51818
H          3.26762        4.56401       -2.25658
H          4.43104        3.53700       -1.42536
C         -1.82851       -3.42987        0.05945
H         -0.89682       -2.86522        0.07991
H         -1.59587       -4.44411       -0.27274
H         -2.18012       -3.49240        1.09110
C         -1.01747        3.13523       -0.37767
H         -0.92083        3.56037       -1.37843
H         -0.82836        3.93684        0.33991
H         -0.22094        2.40122       -0.26020
Cl        -1.72437       -0.38312        2.38059
Pd        -0.09137       -0.03880        0.88155
