111
-148.55173140
P         -2.68866        2.03475        0.39011
P          0.17891        0.64319        0.19574
C         -1.51008        2.16070        1.76807
C         -0.25004        1.61313        1.65407
C         -3.79911        3.51916        0.36219
C         -3.80187        4.19942       -0.98861
C         -1.87512        2.80021        2.93619
H         -2.86753        3.20851        3.03345
C         -0.97348        2.89865        3.98189
H         -1.25985        3.39829        4.89294
C          0.29075        2.35552        3.86069
H          0.99212        2.42919        4.67547
C          0.65101        1.70554        2.69440
H          1.62685        1.25793        2.59161
Pd        -1.39618        1.29258       -1.38389
Cl        -3.15275        1.71209       -2.70535
Cl        -0.01565        0.40373       -2.91708
C         -5.16737        2.93246        0.76905
C         -3.93690        0.68709        0.61350
H         -2.79153        4.47959       -1.29526
H         -4.20598        3.53395       -1.75226
H         -4.41769        5.10186       -0.98283
H         -5.97083        3.50379        0.28160
H         -5.32531        3.06405        1.84960
H         -3.76306       -0.04425       -0.18801
C         -5.27790        1.42253        0.41440
C         -3.78743        0.03135        1.96884
H         -3.42067        4.21053        1.12678
H         -6.05689        0.93743        1.02060
H         -5.60700        1.31910       -0.63016
H         -3.93221        0.76079        2.76793
H         -4.51817       -0.76832        2.11153
H         -2.79080       -0.39708        2.09164
C         -1.12636       -3.66437        0.91988
C         -0.81775       -2.82672        2.02205
C         -0.41101       -1.52841        1.76584
C         -0.35983       -1.04265        0.48591
C         -0.73765       -1.82187       -0.57407
C         -1.17697       -3.12036       -0.38899
O         -1.34600       -5.05288        1.12203
C         -0.87746       -3.31823        3.47651
H         -0.11868       -0.87554        2.56920
H         -0.66898       -1.39836       -1.56032
C         -1.68432       -3.91138       -1.60450
C          4.66624        0.59983       -0.58687
C          3.82915        1.42657       -1.38370
C          2.47316        1.45622       -1.10012
C          1.93585        0.64138       -0.13888
C          2.72099       -0.25222        0.54279
C          4.08499       -0.32781        0.31743
O          6.07568        0.75200       -0.63954
C          4.33366        2.25924       -2.57483
H          1.81405        2.11126       -1.64403
H          2.25093       -0.90362        1.26027
C          4.87332       -1.42822        1.04763
C         -1.99742       -4.35753        3.66381
C          0.48087       -3.92526        3.85995
C         -1.18281       -2.14947        4.44127
C         -2.33420       -2.95961       -2.63614
C         -0.50322       -4.62943       -2.27414
C         -2.76346       -4.92918       -1.19349
C         -0.17266       -5.84729        1.00065
H         -2.08178       -4.65910        4.70756
H         -2.95704       -3.94778        3.35025
H         -1.80956       -5.25335        3.07717
H          0.73132       -4.76724        3.21919
H          1.27516       -3.18565        3.76012
H          0.47449       -4.27706        4.89128
H         -0.36177       -1.43538        4.48432
H         -2.08457       -1.61924        4.13715
H         -1.33893       -2.51701        5.45524
H         -2.81291       -3.52404       -3.43586
H         -3.09416       -2.33701       -2.16462
H         -1.59921       -2.30597       -3.10321
H          0.25237       -3.91178       -2.59299
H         -0.02761       -5.32869       -1.59055
H         -0.83148       -5.18636       -3.15132
H         -3.16746       -5.44517       -2.06411
H         -2.36277       -5.68323       -0.52080
H         -3.58631       -4.42992       -0.68288
H          0.69153       -5.21912        0.78050
H         -0.00064       -6.38886        1.93069
H         -0.30497       -6.57676        0.20186
C          6.55644        1.72922        0.26800
C          3.40372        2.03056       -3.78756
C          4.31962        3.75030       -2.20124
C          5.75133        1.85350       -3.01415
C          6.26292       -1.65805        0.42882
C          5.02601       -1.04864        2.52962
C          4.10571       -2.76607        0.94557
H          3.33148        0.96874       -4.02098
H          2.39712        2.40154       -3.60308
H          3.78213        2.54456       -4.67068
H          4.97842        3.95030       -1.35823
H          4.64999        4.36443       -3.03858
H          3.31666        4.07295       -1.92368
H          6.48302        2.08038       -2.24231
H          5.79950        0.78399       -3.21594
H          6.05002        2.38439       -3.91774
H          6.76758       -2.50226        0.89807
H          6.17929       -1.86145       -0.63818
H          6.89858       -0.78442        0.55278
H          5.56300       -1.82312        3.07669
H          5.57587       -0.11610        2.64179
H          4.05193       -0.91904        3.00057
H          4.68435       -3.58003        1.38160
H          3.90583       -3.01601       -0.09600
H          3.15309       -2.72979        1.47151
H          7.63781        1.81768        0.16154
H          6.09368        2.69258        0.05947
H          6.31812        1.43892        1.28999
