87
-129.18593898
P         -1.55045       -0.31019       -0.37973
P          1.70598        0.39029        0.07296
C         -1.19717        0.92884       -1.63073
C          1.56770       -0.71359       -1.35352
C         -0.13028        0.73910       -2.50021
C          0.13679        1.72457       -3.47162
C         -0.67637        2.84393       -3.53852
C         -1.73198        3.01086       -2.66709
C         -1.98950        2.04756       -1.71191
C          2.31100       -1.86834       -1.28435
C          2.20417       -2.83266       -2.26697
C          1.33141       -2.64172       -3.31531
C          0.56353       -1.49363       -3.40332
C          0.69143       -0.49779       -2.41569
Cl         1.08925        0.18646        3.25559
Cl        -1.50055       -1.56879        2.63175
H         -2.35156        3.89049       -2.72829
H         -2.81590        2.16636       -1.03109
H          2.97540       -2.02190       -0.44988
H          2.78992       -3.73521       -2.20594
H         -0.46928        3.59479       -4.28206
H          1.23115       -3.39669       -4.07662
C         -2.21579       -4.35793       -2.32524
C         -1.29958       -4.24640       -1.28831
C         -1.13131       -3.00703       -0.68317
C         -1.83942       -1.91371       -1.12463
C         -2.73805       -2.02888       -2.15892
C         -2.93175       -3.25931       -2.75917
H         -2.36330       -5.31650       -2.79281
C         -0.53295       -5.42851       -0.80985
H         -0.43521       -2.89911        0.13151
H         -3.27380       -1.15553       -2.49672
H         -3.63584       -3.35837       -3.56899
C         -5.12185        1.00143        2.12743
C         -5.19528       -0.16411        1.39024
C         -4.11701       -0.56514        0.62432
C         -2.97765        0.20384        0.59633
C         -2.90116        1.36291        1.33351
C         -3.97113        1.77763        2.11602
H         -5.96139        1.31615        2.72355
H         -6.09075       -0.76325        1.41460
H         -4.15622       -1.47844        0.05374
H         -2.00305        1.95558        1.30199
C         -3.88363        3.04131        2.89720
C          5.65268       -0.28930        2.23775
C          5.48864        0.81969        1.43148
C          4.28817        1.02537        0.77767
C          3.26152        0.12389        0.93652
C          3.42407       -0.98288        1.73758
C          4.62567       -1.20923        2.39767
H          6.58331       -0.44665        2.75589
H          6.29354        1.52677        1.31476
H          4.14418        1.88928        0.14948
H          2.60517       -1.67063        1.87040
C          4.78095       -2.38668        3.29437
C          0.92972        4.80292       -0.67969
C          1.80364        4.11723       -1.50086
C          2.05890        2.77786       -1.27235
C          1.43583        2.13858       -0.22697
C          0.59296        2.82766        0.61466
C          0.31986        4.17203        0.39602
H          0.71568        5.84119       -0.86783
H          2.27573        4.62130       -2.32814
H          2.72338        2.22192       -1.91442
H          0.16654        2.32490        1.46574
C         -0.64049        4.89922        1.26957
Pd        -0.04533       -0.38044        1.40153
C          1.27347        1.59030       -4.42435
C         -0.38629       -1.34446       -4.54117
H          1.96530        0.80649       -4.11399
H          0.91481        1.34661       -5.42514
H          1.83883        2.52112       -4.48867
H         -1.12948       -0.57135       -4.34353
H          0.14246       -1.07929       -5.45743
H         -0.92443       -2.27604       -4.72196
H         -1.05624       -5.92366        0.00924
H         -0.39047       -6.15662       -1.60964
H          0.45442       -5.13490       -0.45009
H         -4.04969        3.90691        2.25432
H         -4.62707        3.06641        3.69505
H         -2.90025        3.14681        3.35788
H          4.25481       -3.25501        2.89502
H          5.83060       -2.65961        3.41181
H          4.37466       -2.17353        4.28406
H         -1.65958        4.79305        0.89476
H         -0.61457        4.51166        2.28906
H         -0.40627        5.96372        1.31340
