87
-129.18550282
P         -1.54380       -0.30583       -0.38028
P          1.70052        0.38460        0.08895
C         -1.18834        0.93065       -1.63335
C          1.56392       -0.72033       -1.33835
C         -0.12066        0.73550       -2.50041
C          0.14935        1.71599       -3.47613
C         -0.66262        2.83584       -3.54959
C         -1.71945        3.00800       -2.68058
C         -1.97950        2.04969       -1.72108
C          2.30121       -1.87852       -1.26152
C          2.19765       -2.84459       -2.24274
C          1.33397       -2.65211       -3.29815
C          0.57212       -1.50074       -3.39442
C          0.69719       -0.50312       -2.40815
Cl         1.13092        0.18572        3.23389
Cl        -1.52531       -1.59226        2.60992
H         -2.33800        3.88799       -2.74699
H         -2.80695        2.17249       -1.04232
H          2.95895       -2.03355       -0.42215
H          2.77876       -3.74968       -2.17512
H         -0.45338        3.58308       -4.29617
H          1.23590       -3.40843       -4.05842
C         -2.23421       -4.34548       -2.33410
C         -1.32210       -4.24375       -1.29259
C         -1.14571       -3.00689       -0.68451
C         -1.84184       -1.90667       -1.12775
C         -2.73644       -2.01224       -2.16657
C         -2.93825       -3.23990       -2.76977
H         -2.38789       -5.30202       -2.80383
C         -0.56929       -5.43429       -0.81317
H         -0.45297       -2.90624        0.13392
H         -3.26276       -1.13359       -2.50551
H         -3.63922       -3.33137       -3.58318
C         -5.12434        1.01718        2.10888
C         -5.19529       -0.15077        1.37534
C         -4.11417       -0.55460        0.61500
C         -2.97433        0.21379        0.58882
C         -2.90038        1.37530        1.32243
C         -3.97334        1.79299        2.09926
H         -5.96610        1.33411        2.70068
H         -6.09100       -0.74961        1.39825
H         -4.15152       -1.46990        0.04753
H         -2.00212        1.96774        1.29209
C         -3.88876        3.05916        2.87674
C          5.68202       -0.26358        2.20097
C          5.49931        0.84187        1.39394
C          4.28832        1.03778        0.75682
C          3.26963        0.13040        0.93282
C          3.45086       -0.97272        1.73492
C          4.66327       -1.18944        2.37834
H          6.62092       -0.41342        2.70628
H          6.29782        1.55383        1.26373
H          4.13005        1.89897        0.12843
H          2.63778       -1.66432        1.88269
C          4.83909       -2.36268        3.27675
C          0.90539        4.79593       -0.65528
C          1.77456        4.11298       -1.48366
C          2.03470        2.77411       -1.25806
C          1.42117        2.13234       -0.20855
C          0.58369        2.81898        0.64042
C          0.30570        4.16288        0.42482
H          0.68748        5.83387       -0.84079
H          2.23906        4.61876       -2.31418
H          2.69561        2.22034       -1.90566
H          0.16705        2.31511        1.49568
C         -0.64812        4.88875        1.30655
Pd        -0.05688       -0.38774        1.41853
C          1.28861        1.57710       -4.42510
C         -0.36931       -1.35079       -4.53917
H          1.97384        0.78739       -4.11508
H          0.93202        1.33953       -5.42810
H          1.86065        2.50419       -4.48396
H          0.16667       -1.08960       -5.45237
H         -0.90946       -2.28088       -4.72158
H         -1.11119       -0.57469       -4.34840
H         -0.39933       -6.14543       -1.62284
H          0.40523       -5.14726       -0.41509
H         -1.11840       -5.94686       -0.02216
H         -4.63930        3.08956        3.66773
H         -2.90929        3.16306        3.34598
H         -4.04631        3.92300        2.22938
H          5.89152       -2.63283        3.37409
H          4.45243       -2.14608        4.27353
H          4.30696       -3.23387        2.89185
H         -0.63251        4.48384        2.31947
H         -0.39855        5.94881        1.36941
H         -1.66687        4.80389        0.92548
