111
-148.55637969
P         -2.44025        2.43567        0.40284
P         -0.11091        0.29529        0.47996
C         -1.77039        1.90309        1.99514
C         -0.79262        0.93382        2.02428
C         -2.46872        4.27622        0.24025
C         -1.41407        4.73798       -0.74198
C         -2.25723        2.43075        3.17359
H         -3.01863        3.19325        3.14025
C         -1.76827        1.97310        4.38508
H         -2.14751        2.38291        5.30691
C         -0.80138        0.98627        4.41367
H         -0.42513        0.62533        5.35672
C         -0.31329        0.46358        3.22937
H          0.44076       -0.30816        3.23476
Pd        -1.33357        1.26768       -1.25073
Cl        -2.84711        2.02416       -2.71955
Cl        -0.25230       -0.14485       -2.62701
C         -3.91691        4.56627       -0.19707
C         -4.24936        2.06565        0.24167
H         -1.58336        4.29503       -1.72557
H         -1.42703        5.82400       -0.86131
H         -0.41289        4.44309       -0.41769
H         -3.94835        4.62270       -1.29391
H         -4.23362        5.55851        0.15857
H         -4.37642        1.61938       -0.75351
C         -4.89715        3.46190        0.28943
C         -4.72985        1.11398        1.31724
H         -2.27783        4.68121        1.24262
H         -5.20470        3.67464        1.32242
H         -5.82529        3.47284       -0.30191
H         -4.15204        0.18760        1.31427
H         -4.62258        1.55881        2.30757
H         -5.78375        0.85891        1.18415
C         -0.94239       -4.14494       -0.06217
C          0.34766       -3.71750        0.34465
C          0.57062       -2.35922        0.49453
C         -0.44436       -1.45434        0.32867
C         -1.71828       -1.86850        0.04182
C         -2.00850       -3.21163       -0.13291
O         -1.15824       -5.50042       -0.42798
C          1.50946       -4.69417        0.58647
H          1.55196       -1.98490        0.72885
H         -2.48398       -1.12028       -0.06832
C         -3.45371       -3.62687       -0.44956
C          4.40064        0.92026        0.19961
C          3.70279        1.39809        1.33804
C          2.33292        1.20434        1.39768
C          1.65014        0.63060        0.35603
C          2.30865        0.27740       -0.79240
C          3.67644        0.44148       -0.92113
O          5.82054        0.88534        0.19807
C          4.41464        2.07729        2.51845
H          1.78040        1.49041        2.27400
H          1.72733       -0.13445       -1.59729
C          4.35058        0.06872       -2.25069
C          2.49915       -4.11995        1.62648
C          0.99826       -6.03432        1.14516
C          2.26716       -4.92086       -0.73045
C         -3.77268       -5.01542        0.13313
C         -4.45982       -2.63402        0.17566
C         -3.65705       -3.62705       -1.97259
C         -0.92530       -5.77615       -1.80363
H          1.97754       -3.82440        2.53644
H          3.24948       -4.86247        1.89722
H          3.03369       -3.25342        1.23949
H          1.82612       -6.70523        1.37322
H          0.42807       -5.87584        2.05990
H          0.35136       -6.54057        0.43314
H          3.10895       -5.59749       -0.58548
H          1.61945       -5.34899       -1.49116
H          2.65376       -3.97887       -1.11781
H         -3.59222       -5.03093        1.20744
H         -4.81476       -5.28303       -0.03986
H         -3.15587       -5.78772       -0.31931
H         -5.48088       -3.00010        0.07066
H         -4.26114       -2.49726        1.23833
H         -4.41924       -1.66162       -0.31287
H         -2.98622       -4.32910       -2.46104
H         -4.67922       -3.90276       -2.23045
H         -3.45857       -2.63864       -2.38668
H         -0.61284       -4.87059       -2.32535
H         -0.15108       -6.53732       -1.89811
H         -1.83695       -6.16278       -2.25881
C          6.36933       -0.33187        0.68794
C          4.83474        1.00985        3.54023
C          5.64575        2.86949        2.04203
C          3.47356        3.08502        3.21735
C          5.59585        0.93705       -2.50565
C          4.73590       -1.41803       -2.22440
C          3.38618        0.30680       -3.43545
H          5.51838        0.28886        3.09855
H          5.33188        1.46376        4.39714
H          3.96576        0.46236        3.90471
H          6.39601        2.21343        1.60772
H          5.36246        3.60016        1.28517
H          6.11353        3.40205        2.86970
H          4.01307        3.66022        3.96948
H          3.05356        3.78679        2.49723
H          2.65234        2.58396        3.72777
H          6.03606        0.71526       -3.47750
H          5.33642        1.99497       -2.48419
H          6.36036        0.76627       -1.75199
H          5.21561       -1.71397       -3.15697
H          5.42246       -1.63392       -1.40924
H          3.85242       -2.04060       -2.08717
H          2.98813        1.32086       -3.41359
H          2.54897       -0.38928       -3.42165
H          3.89989        0.16905       -4.38651
H          5.57378       -1.01358        0.99165
H          6.97259       -0.80084       -0.08917
H          7.01525       -0.12399        1.54084
