105
-153.06684569
Cl        -0.00232        1.94446        3.04941
Pd        -0.45477        1.28443        0.93715
P         -1.12438        0.49163       -1.17206
N         -0.73555       -1.02636       -1.97660
C          0.19021       -2.00736       -1.62266
C          0.32681       -2.47984       -0.29280
C          1.29259       -3.46773       -0.00830
C          1.41161       -3.98776        1.40473
C          2.23734       -5.27589        1.54570
C          3.51211       -5.20378        0.70051
C          3.16564       -5.01331       -0.78345
C          2.09931       -3.97573       -1.03061
C          1.91017       -3.53128       -2.33307
C          0.97203       -2.57710       -2.62664
H          0.84891       -2.23138       -3.63819
H          2.52336       -3.94099       -3.11788
H          4.06408       -4.73880       -1.35111
H          4.12709       -4.36171        1.04233
H          2.47976       -5.47190        2.59975
H          1.85738       -3.20065        2.02353
C         -0.67278       -2.11722        0.74051
C         -0.24948       -1.53339        1.96581
C         -1.18570       -1.39001        2.99410
C         -2.48721       -1.78422        2.82493
C         -2.92207       -2.34854        1.63203
C         -4.36083       -2.79879        1.54420
C         -4.82020       -3.17844        0.12739
C         -3.74132       -3.98989       -0.59404
C         -2.43898       -3.18352       -0.70249
C         -2.01397       -2.51855        0.58464
H         -1.62629       -3.83060       -1.05543
H         -4.08990       -4.30769       -1.58693
H         -5.03001       -2.26790       -0.44712
H         -5.00356       -2.00943        1.95357
H         -3.19305       -1.66014        3.62877
H         -0.87436       -0.93643        3.91870
N          1.05157       -1.04367        2.15629
P          1.62386        0.18946        1.03403
C          2.61180       -0.34202       -0.35158
C          2.37477        0.22484       -1.57898
C          3.17404       -0.11448       -2.65502
C          4.21672       -1.01873       -2.50057
C          4.45903       -1.55337       -1.24161
C          3.65755       -1.21313       -0.16656
H          3.84079       -1.62026        0.81515
H          5.27733       -2.24017       -1.10885
C          5.08075       -1.38298       -3.65679
H          2.98885        0.31895       -3.62280
H          1.56001        0.92019       -1.68891
C          2.56356        1.48144        1.85252
C          3.26659        1.20658        3.00075
C          3.99046        2.21072        3.61801
C          4.02191        3.49134        3.08215
C          3.30618        3.74694        1.92022
C          2.58379        2.74173        1.30317
H          2.02986        2.93627        0.39776
H          3.31424        4.73960        1.50352
C          4.77371        4.58090        3.76415
H          4.53413        2.00545        4.52433
H          3.25182        0.20905        3.40891
H          1.20755       -0.62445        3.06387
H         -1.00689       -0.94242       -2.94820
C         -0.64027        1.85622       -2.24176
C         -0.89960        3.15065       -1.86014
C         -0.51443        4.20309       -2.66812
C          0.12974        3.96677       -3.87459
C          0.38731        2.65432       -4.24570
C         -0.00234        1.60468       -3.43426
H          0.20837        0.58851       -3.72191
H          0.89896        2.45962       -5.17283
C          0.57404        5.09936       -4.73331
H         -0.71041        5.21713       -2.36404
H         -1.40410        3.33140       -0.92590
C         -2.91909        0.52420       -1.09590
C         -3.60748        0.75055       -2.26424
C         -4.99099        0.77296       -2.25610
C         -5.69327        0.58001       -1.07441
C         -4.98038        0.34448        0.09250
C         -3.59866        0.30765        0.07781
H         -3.04388        0.12199        0.98321
H         -5.51504        0.19148        1.01417
C         -7.18212        0.58072       -1.06404
H         -5.53369        0.94405       -3.17002
H         -3.05911        0.91023       -3.17960
Cl        -2.24932        2.65402        0.99568
H          2.82978       -5.96624       -1.20955
H          1.63409       -6.13213        1.21877
H          4.13059       -6.10048        0.84808
H          0.40340       -4.14331        1.80898
H         -3.55026       -4.91611       -0.03769
H         -2.55353       -2.40853       -1.46890
H         -4.49417       -3.65679        2.21400
H         -5.76965       -3.73146        0.15791
H          5.46798       -2.39771       -3.55377
H          4.52398       -1.33574       -4.59379
H          5.93072       -0.70376       -3.73482
H          4.13531        5.10218        4.47870
H          5.63413        4.18646        4.30651
H          5.14330        5.31384        3.04564
H         -0.07726        5.96591       -4.61062
H          1.59021        5.40321       -4.47804
H          0.56034        4.82231       -5.78842
H         -7.56801        0.96450       -0.11861
H         -7.58176        1.20704       -1.86279
H         -7.57071       -0.42936       -1.20127
