87
-129.18307674
P         -1.51522       -0.26305       -0.42499
P          1.70290        0.29691        0.22921
C         -1.08490        0.97803       -1.64973
C          1.51635       -0.80371       -1.19693
C          0.00872        0.74126       -2.47227
C          0.35592        1.70758       -3.43738
C         -0.41690        2.85213       -3.54965
C         -1.50483        3.06274       -2.72744
C         -1.83657        2.12037       -1.77395
C          2.14001       -2.01946       -1.03956
C          2.04082       -2.98960       -2.01807
C          1.29715       -2.73943       -3.15022
C          0.64255       -1.53187       -3.32215
C          0.75950       -0.53408       -2.33510
Cl         0.91996       -0.23166        3.39935
Cl        -1.66692       -1.85347        2.42491
H         -2.09104        3.96176       -2.82462
H         -2.68617        2.27270       -1.12946
H          2.70165       -2.21118       -0.13727
H          2.53361       -3.93945       -1.89060
H         -0.15142        3.58903       -4.28856
H          1.20457       -3.49613       -3.91080
C         -2.43684       -4.18028       -2.53389
C         -1.62591       -4.19518       -1.40744
C         -1.36489       -2.99244       -0.76277
C         -1.90129       -1.81720       -1.23403
C         -2.71377       -1.81166       -2.34348
C         -2.98482       -2.99988       -2.99642
H         -2.63505       -5.10498       -3.04857
C         -1.00639       -5.45940       -0.92597
H         -0.73657       -2.97923        0.11143
H         -3.11939       -0.87753       -2.69949
H         -3.61538       -3.00238       -3.87034
C         -5.14955        1.10218        1.96490
C         -5.21392       -0.05200        1.21026
C         -4.11341       -0.45998        0.48099
C         -2.96076        0.28973        0.50503
C         -2.89450        1.43896        1.25808
C         -3.98730        1.86006        2.00552
H         -6.00542        1.42194        2.53453
H         -6.11862       -0.63738        1.19340
H         -4.14617       -1.36633       -0.10109
H         -1.98794        2.01813        1.26491
C         -3.91173        3.10736        2.81371
C          6.04865       -0.04277        1.55293
C          5.73508        0.15332        0.22243
C          4.41211        0.25553       -0.16691
C          3.41412        0.15609        0.77511
C          3.72749       -0.03748        2.09885
C          5.04946       -0.13334        2.51160
H          7.07759       -0.12867        1.85836
H          6.51974        0.22448       -0.51288
H          4.15179        0.40165       -1.20353
H          2.93437       -0.11879        2.82013
C          5.38106       -0.37056        3.94309
C          0.80423        4.72108       -0.30543
C          1.66927        4.09079       -1.17786
C          1.95259        2.74754       -1.01713
C          1.35918        2.04547        0.00483
C          0.52806        2.67980        0.89977
C          0.23252        4.02979        0.75355
H          0.57196        5.76436       -0.43546
H          2.11596        4.64191       -1.98909
H          2.62162        2.23894       -1.69211
H          0.14103        2.13201        1.74224
C         -0.69519        4.71489        1.69334
Pd        -0.13039       -0.54249        1.44508
C          1.53592        1.52949       -4.32772
C         -0.18328       -1.32689       -4.54502
H          1.22275        1.31401       -5.35004
H          2.14710        2.43299       -4.34807
H          2.17167        0.71032       -3.98966
H         -0.76906       -2.21885       -4.77166
H         -0.88312       -0.49980       -4.42194
H          0.44700       -1.11173       -5.40868
H         -0.83565       -5.42721        0.15110
H         -1.64751       -6.31698       -1.13465
H         -0.04542       -5.62893       -1.41380
H         -4.72720        3.16199        3.53618
H         -2.97467        3.15384        3.37022
H         -3.97123        3.98876        2.17379
H          5.46355       -1.43854        4.14936
H          6.32830        0.09954        4.21112
H          4.61066        0.03939        4.59783
H         -1.69836        4.77594        1.26937
H         -0.75984        4.18144        2.64262
H         -0.35759        5.72999        1.90707
