58
-89.86511136
P          1.70865        0.27176        0.78733
C          2.98376        1.46176        0.37299
C          2.64460        2.78583        0.21425
C          3.62077        3.70874       -0.11723
C          4.92813        3.29692       -0.28679
C          5.26242        1.96645       -0.12704
C          4.28443        1.04576        0.20362
H          4.52744        0.00239        0.32481
H          1.61774        3.09055        0.34294
C          2.30736       -1.41089        0.57382
C          2.63367       -2.20037        1.65360
C          3.05406       -3.50240        1.45034
C          3.15016       -4.00473        0.16760
C          2.83405       -3.20669       -0.91342
C          2.41414       -1.90653       -0.70555
H          2.16483       -1.26667       -1.53634
H          2.56340       -1.80000        2.65159
C          1.19474        0.59384        2.52186
C          0.06423       -0.29640        3.02107
C         -1.32008        0.17551        2.61002
P         -1.74189        0.03866        0.82171
C         -1.97584       -1.68462        0.35279
C         -0.89308       -2.53103        0.42226
C         -1.02243       -3.85600        0.04952
C         -2.24070       -4.32648       -0.39744
C         -3.32263       -3.47235       -0.48176
C         -3.18694       -2.14721       -0.10960
H         -4.01790       -1.46812       -0.19877
H          0.06491       -2.14189        0.71984
C         -3.23853        1.02042        0.62002
C         -4.40367        0.59531        1.21909
C         -5.55516        1.35370        1.10474
C         -5.52971        2.54121        0.40094
C         -4.35531        2.97480       -0.18119
C         -3.20616        2.21405       -0.06447
H         -2.28277        2.54422       -0.51241
H         -4.40613       -0.32288        1.78522
Pd        -0.04043        0.50563       -0.70354
Cl         1.49029        0.75902       -2.33348
Cl        -1.75098        0.66690       -2.16095
H         -2.09808       -0.38316        3.13622
H         -1.45564        1.22524        2.87828
H          0.22263       -1.32757        2.68410
H          0.10756       -0.34942        4.12018
H          2.09949        0.46627        3.12145
H          0.91924        1.64744        2.59569
H          3.35938        4.74614       -0.24651
H          6.28180        1.64453       -0.26302
H          3.30609       -4.12426        2.29362
H          2.91181       -3.59471       -1.91569
H         -0.16964       -4.51306        0.09647
H         -4.27059       -3.83552       -0.84345
H         -6.46910        1.01878        1.56721
H         -4.33296        3.90358       -0.72723
H          5.68860        4.01494       -0.54728
H          3.47627       -5.01988        0.00995
H         -2.34467       -5.35832       -0.69102
H         -6.42634        3.13231        0.30934
