64
-97.21674699
Cl        -1.52972       -1.08355       -2.65200
Cl         1.51436       -1.99853       -2.69295
P          1.94573       -0.59287        0.26382
C          2.19686       -2.24747        1.05531
C          3.70524       -0.17256       -0.14124
P         -1.27629       -0.09996        0.41542
C          1.26646        0.64110        1.42914
C         -0.16443        0.85486        1.51769
C         -0.37585        1.97098        2.42891
C          0.91399        2.40400        2.93841
C          1.93494        1.58537        2.31004
H         -1.34548        2.35576        2.75096
H          1.08529        3.20209        3.66394
Pd         0.19606       -0.93294       -1.22676
H          3.01315        1.65822        2.46636
C         -5.04206        2.12044       -0.90533
C         -4.08875        2.78644       -0.16175
C         -2.94497        2.12405        0.24315
C         -2.75010        0.80474       -0.09893
C         -3.70465        0.13870       -0.83370
C         -4.85221        0.79511       -1.24112
H         -5.93432        2.63477       -1.22334
H         -4.23466        3.82097        0.10275
H         -2.19784        2.63820        0.82054
H         -3.54516       -0.89494       -1.09468
H         -5.59402        0.27227       -1.82224
C         -2.59297       -3.96204        2.41143
C         -2.35756       -2.83641        3.17713
C         -1.96425       -1.65822        2.56766
C         -1.80802       -1.61859        1.20165
C         -2.04696       -2.73464        0.43361
C         -2.44008       -3.91339        1.03941
H         -2.89901       -4.88027        2.88570
H         -2.47859       -2.87495        4.24726
H         -1.77193       -0.77038        3.14910
H         -1.92898       -2.67307       -0.63654
H         -2.62690       -4.79031        0.44160
C          4.00117       -0.34400       -1.61627
H          3.87069        0.86671        0.17189
C          4.49310       -1.15869        0.74370
H          4.68622       -0.70668        1.72778
C          3.71466       -2.48938        0.93049
H          5.48245       -1.34563        0.30078
C          1.70254       -2.22533        2.48544
H          1.62798       -2.97567        0.46100
H          4.07548       -3.02799        1.81846
H          3.91955       -3.15393        0.07862
H          2.24270       -1.47489        3.06613
H          0.64111       -1.97519        2.53484
H          1.84456       -3.19167        2.97503
H          5.04786       -0.12746       -1.84125
H          3.80332       -1.37098       -1.92746
H          3.38487        0.30786       -2.23688
Fe         0.81977        2.51399        0.86950
C         -0.03526        2.73045       -0.97438
C          1.34934        2.32105       -1.09790
C          2.17979        3.32950       -0.46736
C          1.29923        4.35448        0.06575
C         -0.06912        3.99831       -0.26786
H         -0.89198        2.20128       -1.39648
H          1.69957        1.43943       -1.63542
H          3.27055        3.32450       -0.41262
H          1.61528        5.26155        0.58578
H         -0.96034        4.58815       -0.04281
