58
-89.86780239
P          1.70790        0.54618        0.82287
C          3.24469        1.32774        0.32715
C          3.30205        2.69904        0.23070
C          4.48053        3.31148       -0.15757
C          5.59233        2.54456       -0.44565
C          5.52929        1.16847       -0.34798
C          4.34956        0.55914        0.03957
H          4.28378       -0.51410        0.11585
H          2.42155        3.28369        0.44675
C          1.81919       -1.24535        0.65412
C          1.84044       -2.08890        1.74113
C          1.88452       -3.45745        1.54838
C          1.91175       -3.97449        0.26848
C          1.90235       -3.12605       -0.81996
C          1.85882       -1.75830       -0.62292
H          1.84856       -1.07986       -1.46193
H          1.83291       -1.68270        2.73843
C          1.26426        1.09990        2.52539
C         -0.23010        1.15609        2.80696
C         -0.96567       -0.15235        2.53748
P         -1.55104       -0.25688        0.79228
C         -1.61375       -1.94971        0.19066
C         -1.70429       -2.14905       -1.16782
C         -1.74050       -3.43338       -1.67757
C         -1.69270       -4.51258       -0.81768
C         -1.61571       -4.30932        0.54625
C         -1.57852       -3.02255        1.05239
H         -1.52226       -2.85423        2.11528
H         -1.75070       -1.29099       -1.81934
C         -3.16935        0.51392        0.69693
C         -3.28883        1.88468        0.69372
C         -4.54272        2.46459        0.62188
C         -5.66792        1.66666        0.55609
C         -5.54323        0.29141        0.56059
C         -4.28787       -0.28558        0.63144
H         -4.17309       -1.35784        0.63165
H         -2.40241        2.49724        0.72979
Pd        -0.06559        0.78923       -0.65467
Cl         1.41009        1.64768       -2.10961
Cl        -1.83629        1.07793       -2.01097
H         -0.33023       -1.00977        2.75818
H         -1.86046       -0.25265        3.15731
H         -0.38699        1.46582        3.85211
H         -0.68829        1.95122        2.20306
H          1.76807        0.42889        3.22257
H          1.72235        2.08239        2.66349
H          4.52793        4.38493       -0.23944
H          6.39569        0.56958       -0.57593
H          1.89497       -4.12041        2.39794
H          1.92175       -3.52667       -1.82007
H         -1.80541       -3.58971       -2.74173
H         -1.58080       -5.15234        1.21661
H         -4.63970        3.53780        0.61230
H         -6.42067       -0.33181        0.50639
H          6.50999        3.02074       -0.75039
H          1.93927       -5.04151        0.11896
H         -1.71796       -5.51553       -1.21153
H         -6.64493        2.11810        0.49799
