100
-131.97179179
C         -1.63911        3.84151       -1.37352
C         -2.35372        2.56231       -1.45067
C         -0.24244        3.58046       -1.41708
C         -0.02512        2.10965       -1.51919
C          1.15923        1.56719       -2.25002
C         -1.39927        1.49939       -1.57286
C         -1.77888        0.10789       -2.04575
C         -0.83098       -0.49974       -3.06062
Cl         1.05875       -0.42420        2.70123
Cl        -1.78587       -1.69446        2.20674
C          3.25967        0.61529       -3.84524
C          2.50588        1.69069       -4.27231
C          2.98349        0.02606       -2.61983
C          1.48218        2.16236       -3.48946
C          1.94918        0.47436       -1.83246
H         -3.43581        2.44737       -1.53648
H          0.54542        4.33608       -1.46694
H          0.10456       -0.79245       -2.58604
H         -1.25179       -1.39128       -3.53108
H         -0.59545        0.21016       -3.85688
H          4.07043        0.24671       -4.45211
H          2.72175        2.15811       -5.21943
H          3.61024       -0.77932       -2.27301
H          0.88643        2.99212       -3.82901
H         -2.10399        4.83056       -1.35249
P          1.86013       -0.26097       -0.18371
H         -2.76911        0.18488       -2.51119
P         -2.03479       -1.01296       -0.59844
H         -2.95777       -2.88292       -1.85304
C         -1.97166       -3.85481       -0.17947
C         -2.07326       -2.74747       -1.23340
C         -3.26952       -4.03502        0.60796
H         -3.34691        0.58285        0.54614
C         -4.87122       -0.38295       -0.61823
C         -3.58684       -0.42908        0.22132
H         -4.60837       -0.00088       -1.61932
C         -5.50967       -1.76125       -0.78796
H          3.58347       -1.90420       -0.56416
H          2.75228        0.65952        1.87133
C          3.67775        3.20741        1.33331
C          2.79306        2.29409        0.46554
C          3.00820        0.81578        0.81796
C          4.48570        0.44249        0.62235
C          5.40354        1.34736        1.47098
C          5.16346        2.83798        1.16046
H          3.39282        3.09314        2.38653
H          3.50279        4.26545        1.09291
H          3.05258        2.44227       -0.59007
H          1.73282        2.56181        0.53946
H          4.65442       -0.61479        0.86342
H          4.73986        0.54868       -0.43893
H          5.20828        1.16300        2.53473
H          6.45903        1.08260        1.31694
H          5.47149        3.04753        0.12834
H          5.79916        3.47525        1.79137
C          2.35842       -4.28934       -1.27399
C          1.76965       -2.86614       -1.20334
C          2.54933       -1.99231       -0.21252
C          2.57235       -2.64267        1.17965
C          3.17106       -4.06120        1.12062
C          2.39312       -4.94005        0.12224
H          3.37808       -4.23845       -1.67564
H          1.79540       -4.91105       -1.98393
H          0.72663       -2.91679       -0.87400
H          1.74400       -2.39771       -2.19646
H          3.11105       -2.00784        1.89570
H          1.54788       -2.70398        1.56374
H          4.22133       -3.99894        0.80992
H          3.18580       -4.52045        2.11896
H          1.36647       -5.07610        0.48479
H          2.82303       -5.95043        0.07246
H         -1.17857       -3.55945        0.53113
C         -1.55846       -5.18049       -0.82688
H         -3.75489       -1.00472        1.12977
C         -5.87673        0.59209        0.00414
H         -1.22364       -2.82743       -1.91235
H         -3.56599       -3.11774        1.11349
H         -3.16688       -4.81020        1.36897
H         -4.08433       -4.33303       -0.05200
H         -1.43481       -5.96834       -0.08219
H         -2.31753       -5.51330       -1.53546
H         -0.61969       -5.08677       -1.37404
H         -6.43499       -1.70139       -1.36339
H         -4.85082       -2.45715       -1.30285
H         -5.75792       -2.19243        0.18227
H         -6.15461        0.26701        1.00723
H         -5.46278        1.59816        0.08795
H         -6.79170        0.65593       -0.58689
Fe        -1.06230        2.64625        0.15392
C         -2.53857        2.91096        1.60226
C         -1.72563        4.10389        1.44430
C         -0.34396        3.76789        1.73200
C         -0.30803        2.34324        1.99751
C         -1.66127        1.82256        1.97675
H         -3.62570        2.85965        1.51142
H         -2.10215        5.10468        1.21942
H          0.50654        4.45370        1.73104
H          0.56664        1.77324        2.31279
H         -1.94702        0.79671        2.21815
Pd        -0.19519       -0.80547        0.85185
