111
-148.55703502
P         -2.58228        1.87372        1.09643
P          0.18967        0.50015        0.43997
C         -1.41944        1.51381        2.43982
C         -0.18818        0.97134        2.14089
C         -3.51252        3.44598        1.39303
C         -2.97325        4.58072        0.54978
C         -1.75661        1.77392        3.75273
H         -2.72760        2.18024        3.98361
C         -0.85271        1.49612        4.76375
H         -1.11504        1.69875        5.78929
C          0.38319        0.95752        4.46093
H          1.08540        0.73838        5.24838
C          0.71448        0.68943        3.14511
H          1.66720        0.25099        2.89330
Pd        -1.34920        1.68445       -0.84309
Cl        -3.11711        2.46466       -1.97615
Cl        -0.00428        1.25480       -2.59144
C         -4.96522        3.04297        1.07936
C         -3.98781        0.67655        0.96359
H         -3.05398        4.34735       -0.51265
H         -3.52605        5.50644        0.72578
H         -1.91858        4.76846        0.76476
H         -5.17030        3.26060        0.02203
H         -5.66917        3.66612        1.65183
H         -4.04255        0.39062       -0.09549
C         -5.20946        1.53105        1.35226
C         -3.76796       -0.53878        1.83784
H         -3.40437        3.67614        2.46047
H         -5.41931        1.38194        2.42037
H         -6.10754        1.17709        0.82360
H         -4.61374       -1.22814        1.78457
H         -2.87085       -1.08339        1.53829
H         -3.64126       -0.24712        2.88205
C         -1.29037       -3.76185       -0.21021
C         -0.96393       -3.31994        1.09747
C         -0.49262       -2.02773        1.25549
C         -0.39939       -1.17399        0.18830
C         -0.79378       -1.56953       -1.06134
C         -1.29103       -2.84020       -1.28817
O         -1.58276       -5.13188       -0.44409
C         -1.08886       -4.22706        2.33129
H         -0.18954       -1.66741        2.22265
H         -0.69813       -0.86242       -1.86606
C         -1.81046       -3.19328       -2.69044
C          4.62545        0.63500       -0.57069
C          4.07697       -0.49795        0.08307
C          2.71959       -0.50137        0.35707
C          1.93809        0.58948        0.07837
C          2.48343        1.72876       -0.45131
C          3.83263        1.79642       -0.75879
O          5.95460        0.59268       -1.06965
C          4.91605       -1.72758        0.46482
H          2.24602       -1.37049        0.78064
H          1.83012        2.56196       -0.64477
C          4.40240        3.10255       -1.33386
C         -2.27403       -5.19828        2.18404
C          0.21948       -5.00998        2.51907
C         -1.34770       -3.39055        3.60549
C         -2.39773       -1.94022       -3.38149
C         -0.64985       -3.72653       -3.54352
C         -2.94155       -4.23483       -2.61808
C         -0.44846       -5.91385       -0.79646
H         -2.12606       -5.88089        1.35084
H         -2.40225       -5.79950        3.08379
H         -3.19905       -4.65039        2.00722
H          0.43258       -5.63451        1.65496
H          1.06011       -4.32908        2.65128
H          0.16620       -5.65518        3.39562
H         -0.48411       -2.78307        3.87224
H         -2.20401       -2.73059        3.47045
H         -1.55705       -4.03815        4.45659
H         -3.13763       -1.45662       -2.74414
H         -1.62566       -1.21102       -3.62188
H         -2.88625       -2.20767       -4.31803
H         -0.21521       -4.62091       -3.10342
H         -0.98680       -3.97529       -4.54948
H          0.14042       -2.98077       -3.62683
H         -2.58761       -5.17816       -2.21009
H         -3.75040       -3.87835       -1.98111
H         -3.35224       -4.43676       -3.60702
H          0.45363       -5.30066       -0.79033
H         -0.33613       -6.73334       -0.08671
H         -0.59101       -6.34076       -1.78898
C          6.05833        0.09835       -2.39917
C          6.36337       -1.32863        0.80523
C          4.33251       -2.41675        1.71999
C          4.90100       -2.73365       -0.69609
C          3.61889        4.32293       -0.79926
C          5.87229        3.29860       -0.92032
C          4.28001        3.07599       -2.86510
H          6.37891       -0.58391        1.60029
H          6.94010       -2.19155        1.13725
H          6.87215       -0.90550       -0.05719
H          4.99480       -3.20845        2.06959
H          4.20823       -1.70137        2.53257
H          3.36639       -2.87629        1.51638
H          5.48044       -3.62301       -0.44960
H          3.88154       -3.04639       -0.92122
H          5.32044       -2.29927       -1.60029
H          3.57433        4.30844        0.28942
H          4.09869        5.25333       -1.10218
H          2.60092        4.34907       -1.18509
H          5.97210        3.27424        0.16429
H          6.50810        2.51838       -1.33100
H          6.25485        4.25535       -1.27495
H          3.23855        2.96287       -3.16549
H          4.83807        2.24579       -3.29102
H          4.66049        3.99801       -3.30380
H          5.07111       -0.15180       -2.78979
H          6.52038        0.85334       -3.03504
H          6.69032       -0.78944       -2.41179
