105
-153.06642146
Cl        -0.01140        1.99901        3.06486
Pd        -0.47440        1.29740        0.97080
P         -1.10292        0.49030       -1.14930
N         -0.71653       -1.01365       -1.98103
C          0.19363       -2.01080       -1.63479
C          0.32588       -2.49138       -0.30776
C          1.28396       -3.48780       -0.02765
C          1.40056       -4.01111        1.38448
C          2.22754       -5.29862        1.52555
C          3.49826       -5.23035        0.67385
C          3.14419       -5.04432       -0.80885
C          2.08561       -3.99833       -1.05259
C          1.89903       -3.54723       -2.35319
C          0.96930       -2.58326       -2.64200
H          0.84936       -2.23115       -3.65173
H          2.50821       -3.95884       -3.14012
H          4.04128       -4.78048       -1.38368
H          4.11558       -4.38763        1.00975
H          2.47527       -5.49079        2.57905
H          1.84296       -3.22429        2.00619
C         -0.67224       -2.12961        0.72737
C         -0.24711       -1.54255        1.95031
C         -1.17770       -1.41104        2.98532
C         -2.47617       -1.81878        2.82359
C         -2.91363       -2.38310        1.63142
C         -4.34907       -2.84451        1.54955
C         -4.81489       -3.21513        0.13236
C         -3.73575       -4.01341       -0.60344
C         -2.43775       -3.19994       -0.71192
C         -2.01092       -2.54080        0.57751
H         -1.62340       -3.84123       -1.07154
H         -4.08864       -4.32286       -1.59745
H         -5.03489       -2.30130       -0.43303
H         -4.99544       -2.06405        1.97020
H         -3.17796       -1.70407        3.63234
H         -0.86494       -0.95616        3.90880
N          1.04837       -1.03504        2.12819
P          1.59745        0.18293        0.97820
C          2.61936       -0.37390       -0.37249
C          2.42429        0.18174       -1.61213
C          3.25021       -0.17870       -2.66092
C          4.27817       -1.09213       -2.46616
C          4.47883       -1.61406       -1.19462
C          3.65039       -1.25296       -0.14722
H          3.80094       -1.65011        0.84406
H          5.28583       -2.30741       -1.03036
C          5.17123       -1.47922       -3.59251
H          3.09740        0.24524       -3.63854
H          1.62112        0.88501       -1.75225
C          2.52189        1.50270        1.77150
C          3.23444        1.25963        2.92092
C          3.94753        2.28532        3.51479
C          3.94888        3.55862        2.96083
C          3.23953        3.77728        1.78752
C          2.52796        2.75060        1.19390
H          1.97327        2.91804        0.28347
H          3.24614        4.75737        1.34205
C          4.73114        4.65879        3.58940
H          4.50835        2.10210        4.41536
H          3.23799        0.26936        3.34655
H          1.20557       -0.60196        3.02899
H         -0.98352       -0.91403       -2.95236
C         -0.61077        1.87394       -2.19115
C         -0.86473        3.16042       -1.77945
C         -0.47158        4.22974       -2.56097
C          0.17319        4.01867       -3.77173
C          0.42210        2.71396       -4.17486
C          0.02530        1.64728       -3.38959
H          0.22805        0.63709       -3.70300
H          0.93281        2.53861       -5.10635
C          0.62594        5.16944       -4.60139
H         -0.66235        5.23731       -2.23302
H         -1.37483        3.32157       -0.84439
C         -2.89867        0.52523       -1.08683
C         -3.57852        0.80254       -2.24915
C         -4.96196        0.82867       -2.24943
C         -5.67313        0.57539       -1.08455
C         -4.96848        0.30660        0.08010
C         -3.58676        0.26702        0.07323
H         -3.03796        0.05221        0.97578
H         -5.50946        0.13287        0.99440
C         -7.16091        0.63081       -1.07203
H         -5.49765        1.05221       -3.15614
H         -3.02356        1.00209       -3.15257
Cl        -2.30730        2.61331        1.05405
H          2.79687       -5.99616       -1.22812
H          1.62276       -6.15618        1.20494
H          4.11681       -6.12704        0.82113
H          0.39143       -4.16887        1.78560
H         -3.53694       -4.94436       -0.05781
H         -2.55779       -2.42077       -1.47341
H         -4.47074       -3.70951        2.21250
H         -5.76038       -3.77483        0.16450
H          4.64339       -1.43397       -4.54619
H          6.03229       -0.81216       -3.65151
H          5.54146       -2.49791       -3.46821
H          4.80259        4.52365        4.66951
H          5.74417        4.69343        3.18629
H          4.26295        5.62730        3.40821
H         -0.03167        6.03031       -4.47282
H          1.63618        5.47310       -4.32359
H          0.63096        4.91279       -5.66166
H         -7.57441       -0.08422       -0.35929
H         -7.50847        1.62586       -0.79109
H         -7.57300        0.39474       -2.05412
