72
-108.39722856
Cl        -1.91724        0.21798        2.84051
Cl         0.91054       -1.15190        2.70961
P          1.21229       -1.02117       -0.27164
P         -2.24530        0.17893       -0.38970
C         -3.48236       -1.25522       -0.26143
C         -4.22501       -1.15412        1.06778
C         -4.48341       -1.23092       -1.42320
C         -3.11277        1.86624       -0.17104
C         -4.46787        1.86233       -0.87135
C         -1.40998        0.30312       -2.06849
C         -1.29569       -1.00095       -2.83678
C          1.16687        0.29092       -1.52569
C         -0.04254        0.97303       -1.98763
C          0.39708        2.10301       -2.80952
C          1.84585        2.09129       -2.87662
C          2.31961        0.96675       -2.09260
C         -2.70534       -2.56692       -0.27836
H         -4.88491       -2.01233        1.20520
H         -3.52848       -1.13759        1.90548
H         -5.29509       -0.52776       -1.24710
H         -4.94602       -2.21074       -1.55258
C         -3.29537        2.18896        1.30709
H         -4.38000        1.50458       -1.89763
H         -4.88159        2.87146       -0.90909
H         -2.07701        0.96639       -2.63151
H         -0.67879       -1.71239       -2.29406
H         -0.81374       -0.83981       -3.80327
H         -2.25772       -1.47122       -3.03195
H         -0.25891        2.76225       -3.38103
H          2.46950        2.78826       -3.44084
Pd        -0.56338       -0.40617        1.16773
H          3.36010        0.69208       -1.90646
C         -2.24257        2.94274       -0.81346
H         -5.19067        1.24667       -0.33954
H         -2.33481        2.26317        1.81341
H         -3.80932        3.14272        1.43572
H         -3.88094        1.42761        1.81861
H         -2.24850        2.87182       -1.90076
H         -2.60033        3.94073       -0.55418
H         -1.21524        2.85667       -0.47486
H         -4.84486       -0.26117        1.11810
H         -4.01238       -0.95768       -2.36485
H         -1.96013       -2.60234        0.51632
H         -3.37536       -3.41587       -0.13246
H         -2.19254       -2.72240       -1.22433
C          2.89845       -1.09438        0.38302
C          3.35119       -2.11511        1.18036
C          4.68402       -1.83589        1.48423
C          4.99054       -0.65506        0.85337
O          3.90379       -0.19002        0.17020
H          2.77009       -2.96134        1.51157
H          5.34239       -2.42965        2.09707
H          5.94926       -0.15226        0.88395
C          0.89423       -2.65006       -0.96502
C          1.72049       -3.22872       -1.89570
C          1.17376       -4.47550       -2.20484
C          0.03497       -4.60265       -1.44707
O         -0.14986       -3.48534       -0.68265
H          2.62046       -2.79228       -2.29982
H          1.56959       -5.19785       -2.89991
H         -0.63050       -5.45703       -1.44469
Fe         1.21923        2.19618       -0.92397
C          2.86168        2.60911        0.22969
C          1.85380        1.92469        1.01285
C          0.65303        2.73104        0.99032
C          0.91449        3.91881        0.19797
C          2.28130        3.83742       -0.28192
H          3.88464        2.26038        0.07134
H          1.97918        0.98531        1.55568
H         -0.25111        2.51434        1.56023
H          0.22320        4.74710        0.02787
H          2.79470        4.58553       -0.89017
