171
-217.84495861
P         -1.63830        0.38269       -0.38138
P          1.63182       -0.40967       -0.30944
C         -0.88970        1.31089       -1.72017
C          0.92437       -1.39191       -1.63410
C         -0.06793        0.67683       -2.64528
C          0.56889        1.45798       -3.62899
C          0.32886        2.82139       -3.67144
C         -0.51394        3.42476       -2.76203
C         -1.11447        2.66430       -1.77786
C          1.13970       -2.74867       -1.62248
C          0.55457       -3.55388       -2.57928
C         -0.26011       -2.99001       -3.53789
C         -0.49052       -1.62431       -3.56625
C          0.12752       -0.79963       -2.60732
Cl         1.45360        0.21479        2.92252
Cl        -1.69326       -0.62531        2.69859
C         -1.36781       -1.04873       -4.62145
C          1.48910        0.84842       -4.62820
H         -0.70061        4.48481       -2.81591
H         -1.76198        3.12719       -1.05028
H          1.77017       -3.18156       -0.86303
H          0.73091       -4.61710       -2.57234
H          0.81322        3.41249       -4.43038
H         -0.72835       -3.61446       -4.27999
C         -3.97931       -3.25748       -1.69122
C         -2.92795       -3.41646       -0.79706
C         -2.22133       -2.28270       -0.41726
C         -2.54335       -1.05594       -0.94097
C         -3.57231       -0.91750       -1.84016
C         -4.32874       -2.01983       -2.21957
H         -4.54665       -4.12590       -1.96783
H         -1.41775       -2.34456        0.29591
H         -3.79419        0.05991       -2.23532
C         -4.25895        2.94442        2.29964
C         -4.85495        1.95953        1.52147
C         -4.03623        1.20964        0.68815
C         -2.68337        1.43726        0.64166
C         -2.11111        2.41346        1.42074
C         -2.89011        3.18051        2.27799
H         -4.86950        3.54197        2.94997
H         -4.45677        0.42913        0.07921
H         -1.04588        2.55817        1.37073
C          4.44780       -2.81227        2.31588
C          3.10219       -3.16208        2.28376
C          2.26095       -2.43783        1.44957
C          2.74631       -1.39446        0.70196
C          4.07403       -1.05297        0.75833
C          4.95615       -1.75942        1.56350
H          5.11380       -3.36755        2.94758
H          1.21168       -2.67481        1.39799
H          4.42552       -0.21761        0.17839
C          3.88952        3.29607       -1.57003
C          2.88912        3.41446       -0.61241
C          2.18128        2.27016       -0.27024
C          2.47219        1.06816       -0.86502
C          3.46367        0.96539       -1.80930
C          4.19752        2.08607       -2.18066
H          4.46355        4.16285       -1.83796
H          1.41010        2.31018        0.48016
H          3.67028       -0.00147       -2.23619
Pd        -0.04617       -0.03897        1.27291
C         -3.78919       -5.27582        0.64050
C         -2.60753       -4.80380       -0.22482
C         -1.33882       -4.77392        0.64908
C         -2.37692       -5.79743       -1.37887
H         -3.58890       -6.25528        1.07445
H         -3.97197       -4.57556        1.45542
H         -4.70324       -5.35001        0.05225
H         -1.10159       -5.77037        1.02137
H         -0.48263       -4.41931        0.07639
H         -1.47103       -4.12351        1.51336
H         -2.10429       -6.78124       -0.99730
H         -3.27156       -5.91512       -1.98879
H         -1.57285       -5.45289       -2.02799
C         -5.02706       -1.37919       -4.54575
C         -5.52656       -1.83479       -3.16429
C         -6.47302       -0.76760       -2.58266
C         -6.32310       -3.14260       -3.33821
H         -4.46294       -0.44996       -4.47392
H         -4.38129       -2.13610       -4.98934
H         -5.86193       -1.21158       -5.22603
H         -7.36015       -0.65127       -3.20497
H         -6.79806       -1.04574       -1.58030
H         -5.98294        0.20298       -2.52246
H         -6.69323       -3.50576       -2.37954
H         -7.18447       -2.98693       -3.98770
H         -5.70854       -3.92072       -3.79046
C         -7.07354        2.48543        2.65531
C         -6.36373        1.67681        1.55223
C         -6.59927        0.17804        1.82496
C         -6.97240        2.05868        0.19195
H         -6.98435        3.55695        2.47794
H         -8.13649        2.24633        2.68644
H         -6.65433        2.26024        3.63583
H         -6.13088       -0.11961        2.76285
H         -7.66421       -0.04312        1.89375
H         -6.18403       -0.44321        1.03260
H         -8.04337        1.85766        0.17152
H         -6.82221        3.11835       -0.01370
H         -6.50885        1.49450       -0.61560
C         -0.74385        4.25913        3.11783
C         -2.28185        4.24169        3.20615
C         -2.67336        3.93010        4.66311
C         -2.81369        5.62907        2.80632
H         -0.32363        4.99345        3.80486
H         -0.32519        3.28633        3.37571
H         -0.41563        4.52424        2.11453
H         -3.75269        3.96914        4.80352
H         -2.33435        2.93352        4.94554
H         -2.22343        4.64706        5.34961
H         -2.39085        6.40719        3.44158
H         -2.55278        5.85753        1.77300
H         -3.89846        5.67640        2.89577
C          2.10626       -5.45383        2.18385
C          2.52123       -4.30858        3.12316
C          1.29086       -3.80168        3.90269
C          3.54603       -4.84774        4.13968
H          1.66651       -6.27963        2.74279
H          1.37431       -5.11353        1.45328
H          2.96825       -5.83525        1.63681
H          1.55644       -2.94880        4.52687
H          0.49233       -3.48688        3.23267
H          0.88946       -4.58210        4.54872
H          3.10328       -5.62916        4.75721
H          4.41106       -5.27974        3.63712
H          3.89074       -4.05526        4.80377
C          7.02600       -1.46057        0.18177
C          6.43250       -1.33985        1.59786
C          7.25623       -2.22504        2.55229
C          6.53141        0.12111        2.07660
H          6.94770       -2.48471       -0.18250
H          6.50279       -0.81509       -0.52259
H          8.07860       -1.17818        0.17392
H          6.87988       -2.15715        3.57283
H          7.22839       -3.26918        2.24123
H          8.30037       -1.91260        2.56464
H          7.57079        0.44387        2.13357
H          6.00998        0.79689        1.39953
H          6.08762        0.23213        3.06570
C          1.12702        5.15948       -0.27643
C          2.56093        4.73944        0.08941
C          3.52339        5.86584       -0.33323
C          2.67835        4.54859        1.61393
H          0.83893        6.07129        0.24641
H          1.04562        5.34482       -1.34685
H          0.41095        4.38067       -0.01889
H          3.28487        6.79300        0.18784
H          4.55554        5.60887       -0.09560
H          3.45267        6.06269       -1.40281
H          3.68692        4.23754        1.88528
H          2.45713        5.47591        2.14200
H          1.98879        3.78734        1.97531
C          5.17788        3.04070       -4.29265
C          5.37035        2.00527       -3.16829
C          5.48102        0.60684       -3.80726
C          6.67839        2.30109       -2.41176
H          5.98462        2.97612       -5.02263
H          4.23721        2.87509       -4.81618
H          5.16774        4.05711       -3.90147
H          5.67569       -0.15596       -3.05376
H          4.56638        0.34275       -4.33695
H          6.30032        0.57377       -4.52529
H          7.53839        2.23757       -3.07818
H          6.66442        3.29994       -1.97685
H          6.82487        1.58691       -1.60166
H         -0.79261       -0.79580       -5.51279
H          2.39218        1.44914       -4.73767
H         -1.86539       -0.14341       -4.27078
H         -2.13992       -1.76000       -4.91538
H          1.01306        0.78105       -5.60733
H          1.79580       -0.15513       -4.33046
