105
-153.06499865
Cl         0.17019        2.70190        2.81867
Pd        -0.19953        1.72123        0.82082
P         -0.76159        0.54720       -1.16317
N          0.30784       -0.76351       -1.66082
C          0.53744       -2.12170       -1.40864
C          0.06645       -2.82652       -0.27083
C          0.54128       -4.12963       -0.01157
C          0.21107       -4.79222        1.30474
C          1.24438       -5.85136        1.71296
C          1.44439       -6.85575        0.57374
C          1.93523       -6.15623       -0.70628
C          1.38628       -4.76488       -0.92468
C          1.78816       -4.07742       -2.06265
C          1.39092       -2.78545       -2.28895
H          1.74672       -2.25506       -3.15541
H          2.44954       -4.56528       -2.75876
H          3.02989       -6.09090       -0.68781
H          2.13898       -7.65231        0.87539
H          2.19920       -5.35913        1.93638
H          0.12239       -4.02691        2.08590
C         -0.74980       -2.14201        0.75838
C         -0.08615       -1.24808        1.63155
C         -0.82142       -0.61858        2.63493
C         -2.15654       -0.88786        2.79397
C         -2.81213       -1.79986        1.97325
C         -4.26359       -2.09999        2.23449
C         -4.67167       -3.49003        1.72695
C         -4.28313       -3.65178        0.25410
C         -2.77343       -3.44181        0.03134
C         -2.11236       -2.43133        0.94280
H         -2.26215       -4.40205        0.14631
H         -4.84528       -2.92453       -0.34118
H         -5.74753       -3.66281        1.87247
H         -4.87600       -1.33144        1.74916
H         -2.71260       -0.39304        3.57197
H         -0.32423        0.08875        3.27470
N          1.28767       -1.02019        1.47527
P          1.83670        0.61737        1.12122
C          2.62924        0.73939       -0.47894
C          3.42763       -0.28258       -0.93685
C          3.90283       -0.24994       -2.23570
C          3.57732        0.80211       -3.08095
C          2.80629        1.84346       -2.58509
C          2.33322        1.81230       -1.28694
H          1.71088        2.61040       -0.91418
H          2.56097        2.67116       -3.22861
C          4.07761        0.83453       -4.48280
H          4.51770       -1.05253       -2.60585
H          3.65176       -1.11629       -0.29085
C          2.81891        1.34759        2.42018
C          2.85118        0.72904        3.64597
C          3.57780        1.29269        4.67978
C          4.27653        2.47720        4.48579
C          4.21939        3.09161        3.24140
C          3.49215        2.52655        2.20918
H          3.44018        3.00245        1.24279
H          4.74310        4.01959        3.08754
C          5.03382        3.10265        5.60506
H          3.60127        0.81783        5.64567
H          2.30238       -0.18877        3.78620
H          1.76781       -1.61955        0.81816
H          1.10484       -0.25205       -2.02299
C         -0.62188        1.74640       -2.49988
C         -0.85407        3.08854       -2.31721
C         -0.69583        3.96955       -3.36916
C         -0.31697        3.51158       -4.62339
C         -0.09625        2.15245       -4.79661
C         -0.25378        1.27483       -3.73876
H         -0.07877        0.21953       -3.87332
H          0.20682        1.78592       -5.76247
C         -0.11221        4.46326       -5.75017
H         -0.86679        5.02228       -3.22182
H         -1.17108        3.44255       -1.35217
C         -2.45828       -0.02131       -1.22700
C         -2.76551       -0.92281       -2.21878
C         -4.07798       -1.31876       -2.41154
C         -5.09141       -0.81318       -1.60824
C         -4.76343        0.10522       -0.62092
C         -3.45321        0.50337       -0.43744
H         -3.20939        1.25914        0.28828
H         -5.54531        0.52282       -0.00979
C         -6.50915       -1.21433       -1.82467
H         -4.32162       -2.02065       -3.19058
H         -1.97404       -1.30520       -2.84450
Cl        -2.00561        3.03650        0.57643
H          1.69624       -6.76667       -1.58637
H          0.94673       -6.35930        2.64121
H          0.49162       -7.36105        0.37075
H         -0.77512       -5.26261        1.23700
H         -4.59744       -4.63531       -0.12239
H         -2.58123       -3.14795       -1.00716
H         -4.46771       -2.00690        3.30877
H         -4.16373       -4.25832        2.32346
H          5.03727        1.34988       -4.54017
H          4.21204       -0.17406       -4.87626
H          3.37628        1.35373       -5.13776
H          4.39844        3.79014        6.16498
H          5.40670        2.34789        6.29884
H          5.89257        3.66400        5.23425
H          0.92076        4.81284       -5.77848
H         -0.33473        3.99224       -6.70865
H         -0.76027        5.33527       -5.65198
H         -7.04407       -1.29073       -0.87685
H         -7.02756       -0.48278       -2.44585
H         -6.57506       -2.18357       -2.32103
