75
-122.80364673
P          1.89334       -0.50728       -0.17171
C          3.31030       -1.16692       -1.07441
C          4.23547       -1.90746       -0.37277
C          5.34156       -2.42707       -1.02092
C          5.51726       -2.19895       -2.37103
C          4.59311       -1.44953       -3.07066
C          3.49178       -0.93180       -2.41707
H          2.78085       -0.32192       -2.94575
H          4.73257       -1.26274       -4.12283
H          6.37820       -2.60299       -2.87823
H          6.06365       -3.00903       -0.47213
H          4.08728       -2.07810        0.68166
C          1.58971       -1.63880        1.18688
C          1.91161       -1.27928        2.47533
C          1.77941       -2.20124        3.49744
C          1.33123       -3.47736        3.21846
C          1.01231       -3.83342        1.92287
C          1.14599       -2.90974        0.90170
H          0.91953       -3.17640       -0.11892
H          0.65990       -4.82840        1.70635
H          1.22358       -4.19534        4.01498
H          2.02422       -1.92272        4.50916
H          2.26738       -0.28119        2.67375
C          2.27198        1.14918        0.41843
C          3.44763        1.79205        0.10906
C          3.63613        3.12283        0.45709
C          2.59205        3.80508        1.08095
C          1.40328        3.17650        1.37975
C          1.24689        1.81509        1.07521
O          0.05732        1.13451        1.38353
C         -1.13845        1.80705        1.07753
C         -1.28285        3.18027        1.32966
C         -2.44809        3.81431        0.96031
C         -3.48355        3.11981        0.33554
C         -3.32426        1.76390        0.08544
C         -2.17597        1.11147        0.47063
P         -1.79565       -0.62361        0.14097
C         -1.75656       -1.50780        1.71629
C         -1.36170       -0.87997        2.87543
C         -1.41672       -1.55077        4.08243
C         -1.86407       -2.85590        4.12293
C         -2.25328       -3.48883        2.95948
C         -2.20121       -2.81047        1.75519
H         -2.51588       -3.29069        0.84276
H         -2.60014       -4.50864        2.98873
H         -1.90352       -3.38290        5.06224
H         -1.10274       -1.05758        4.98763
H         -0.99247        0.12955        2.82913
C         -3.05189       -1.45786       -0.84154
C         -4.37933       -1.34009       -0.49770
C         -5.34026       -2.02301       -1.22096
C         -4.96284       -2.83167       -2.27446
C         -3.62782       -2.96762       -2.59891
C         -2.66939       -2.28421       -1.87295
H         -1.62222       -2.38805       -2.10967
H         -3.33164       -3.60407       -3.41649
H         -5.71088       -3.36264       -2.84030
H         -6.38100       -1.92807       -0.95802
H         -4.65754       -0.73872        0.35297
Pd        -0.07796        0.10878       -1.35075
Cl        -1.74979        0.36883       -2.83593
Cl         1.35403        1.22286       -2.68024
H         -4.09122        1.22837       -0.44398
C         -4.71245        3.82939       -0.10937
H         -5.58322        3.17420       -0.06125
H         -4.60727        4.17463       -1.13863
H         -4.91567        4.69770        0.51868
H         -2.55096        4.86862        1.14718
S          0.04844        4.05217        2.11720
H          2.70575        4.84782        1.31960
C          4.89589        3.82678        0.09894
H          4.21398        1.26384       -0.43159
H          4.82567        4.25925       -0.89989
H          5.10990        4.63309        0.80163
H          5.74515        3.14235        0.11072
