58
-89.86468128
P          1.63712        0.22053        0.78386
C          1.97116        1.90926        0.26678
C          3.18798        2.24839       -0.27926
C          3.41596        3.54602       -0.70036
C          2.41963        4.49452       -0.57778
C          1.19588        4.14725       -0.04099
C          0.97254        2.84896        0.37945
H          0.01206        2.55858        0.77068
H          3.95051        1.49446       -0.38639
C          3.11971       -0.79424        0.73377
C          4.21781       -0.40164        1.46594
C          5.36353       -1.17741        1.45880
C          5.39903       -2.34497        0.72247
C          4.29307       -2.73891       -0.00431
C          3.14967       -1.96094        0.00431
H          2.28291       -2.25506       -0.56489
H          4.17433        0.51063        2.04015
C          0.96971        0.16766        2.49380
C          0.29481       -1.17699        2.75037
C         -1.20281       -1.18199        2.47995
P         -1.70222       -0.58587        0.80244
C         -3.08644       -1.58970        0.25896
C         -4.33326       -1.02860        0.10306
C         -5.39118       -1.81210       -0.32138
C         -5.19083       -3.15249       -0.58685
C         -3.93754       -3.71075       -0.42890
C         -2.88132       -2.92462       -0.00330
H         -1.89394       -3.34300        0.11520
H         -4.47313        0.01997        0.31021
C         -2.12754        1.16699        0.76610
C         -2.37610        1.72131       -0.46971
C         -2.66349        3.06896       -0.58163
C         -2.70080        3.85675        0.55108
C         -2.45742        3.29847        1.79030
C         -2.17165        1.94975        1.89826
H         -1.98606        1.51280        2.86462
H         -2.32781        1.09095       -1.34413
Pd         0.02662       -0.39832       -0.75436
Cl         1.68151       -0.38164       -2.27452
Cl        -1.50529       -1.12685       -2.23306
H         -1.61136       -2.19027        2.58507
H         -1.73102       -0.56622        3.20913
H          0.78489       -1.93978        2.12769
H          0.47505       -1.49829        3.78855
H          1.82004        0.33602        3.15920
H          0.27940        0.99841        2.64183
H          4.36798        3.81391       -1.12835
H          0.41216        4.88199        0.04310
H          6.22569       -0.87042        2.02776
H          4.32054       -3.64915       -0.58050
H         -6.36842       -1.37576       -0.44740
H         -3.78004       -4.75548       -0.64091
H         -2.85136        3.50186       -1.55033
H         -2.48922        3.91402        2.67435
H          2.59503        5.50530       -0.90833
H          6.29121       -2.94970        0.71498
H         -6.01356       -3.76350       -0.92076
H         -2.92140        4.90849        0.46813
