87
-129.18016779
P         -1.69329       -0.38278        0.15312
P          1.59031        0.33153       -0.19798
C         -1.43896        0.87798       -1.12267
C          1.28473       -0.75866       -1.59198
C         -0.56450        0.78335       -2.20330
C         -0.38848        1.90818       -3.03198
C         -1.11022        3.06155       -2.77735
C         -1.97809        3.13534       -1.71026
C         -2.13027        2.04234       -0.87884
C          2.09421       -1.84308       -1.82568
C          1.86396       -2.65110       -2.92184
C          0.82029       -2.36445       -3.77772
C         -0.00931       -1.27704       -3.55702
C          0.23560       -0.44552       -2.44596
Cl         1.38465        1.83677        2.65608
Cl        -1.19321        0.08892        3.38703
H         -2.52363        4.04401       -1.51538
H         -2.78378        2.09720       -0.02064
H          2.91404       -2.05074       -1.15855
H          2.49679       -3.50362       -3.10639
H         -0.97240        3.91565       -3.41857
H          0.63810       -2.99322       -4.63265
C         -0.39238       -4.68040       -0.56548
C         -1.17062       -4.04739       -1.52443
C         -1.56457       -2.73298       -1.29894
C         -1.18242       -2.07856       -0.15185
C         -0.44847       -2.72945        0.81297
C         -0.03921       -4.03183        0.60101
H         -0.07541       -5.69510       -0.73657
C         -1.55898       -4.76214       -2.77079
H         -2.16431       -2.21663       -2.02894
H         -0.23356       -2.22778        1.74332
H          0.54148       -4.54426        1.35054
C         -6.14453       -0.45208        1.09704
C         -5.70495       -0.57178       -0.20674
C         -4.35019       -0.54590       -0.48323
C         -3.44830       -0.40241        0.54559
C         -3.88565       -0.28356        1.84270
C         -5.24179       -0.29845        2.13989
H         -7.19849       -0.47782        1.31592
H         -6.41596       -0.68630       -1.00847
H         -3.99091       -0.63228       -1.49676
H         -3.16389       -0.17450        2.63229
C         -5.71085       -0.19316        3.54852
C          4.90106       -1.37999        2.42419
C          5.01548       -0.09771        1.92445
C          4.01820        0.42059        1.12006
C          2.91584       -0.34512        0.82143
C          2.79809       -1.61998        1.32329
C          3.79333       -2.16165        2.12623
H          5.67349       -1.78303        3.05675
H          5.87806        0.50150        2.16590
H          4.08840        1.42438        0.73391
H          1.92588       -2.20430        1.08892
C          3.64450       -3.53547        2.67879
C          2.76654        4.40235       -1.83664
C          3.41938        3.26548       -2.27136
C          3.06655        2.02992       -1.76070
C          2.07281        1.94574       -0.81392
C          1.42597        3.07641       -0.37331
C          1.75532        4.32367       -0.88896
H          3.03890        5.36555       -2.23326
H          4.19884        3.33937       -3.01185
H          3.55320        1.12905       -2.10061
H          0.65410        2.99308        0.37279
C          1.05792        5.54612       -0.40611
Pd         0.01969        0.44576        1.53688
C          0.57269        1.89509       -4.17018
C         -1.13285       -1.00635       -4.49559
H          1.28452        1.07355       -4.08412
H          0.04884        1.79147       -5.12109
H          1.14750        2.82177       -4.20264
H         -1.67511       -1.92352       -4.72952
H         -1.84765       -0.30164       -4.06887
H         -0.76422       -0.58737       -5.43265
H         -2.05997       -5.70318       -2.53929
H         -2.23993       -4.16317       -3.37695
H         -0.68119       -4.98809       -3.37778
H         -4.99653        0.35980        4.16027
H         -6.66862        0.32589        3.60674
H         -5.83560       -1.18291        3.98985
H          3.27616       -4.22422        1.91697
H          4.59692       -3.92250        3.04355
H          2.93757       -3.54307        3.50964
H          1.55050        5.94776        0.48042
H          1.04993        6.32417       -1.17074
H          0.02127        5.32775       -0.14514
