171
-217.84138924
P         -1.55215        0.26688       -0.32029
P          1.70259       -0.59709       -0.15747
C         -0.78968        1.00160       -1.77477
C          0.98716       -1.69274       -1.40541
C         -0.03374        0.22800       -2.64600
C          0.57314        0.84792       -3.75600
C          0.38106        2.20395       -3.96360
C         -0.37230        2.95572       -3.08803
C         -0.95267        2.34797       -1.99263
C          1.21257       -3.04015       -1.24919
C          0.59823       -3.95628       -2.07977
C         -0.27302       -3.51576       -3.05205
C         -0.52226       -2.16544       -3.22646
C          0.14389       -1.22923       -2.41211
Cl         1.36735       -0.29696        3.07451
Cl        -1.75556       -0.99452        2.70033
C         -1.50133       -1.73924       -4.26415
C          1.40136        0.06366       -4.71339
H         -0.50581        4.01203       -3.25550
H         -1.53787        2.93069       -1.30176
H          1.87429       -3.38283       -0.47128
H          0.78619       -5.01036       -1.95568
H          0.82929        2.67127       -4.82379
H         -0.77444       -4.22499       -3.68892
C         -4.16650       -3.26717       -1.42146
C         -3.09499       -3.45942       -0.55891
C         -2.31823       -2.35544       -0.23514
C         -2.60655       -1.11734       -0.75387
C         -3.66368       -0.94861       -1.61333
C         -4.46718       -2.02492       -1.96884
H         -4.78575       -4.11107       -1.66014
H         -1.47775       -2.45733        0.42782
H         -3.86307        0.02899       -2.01330
C         -3.88866        3.60152        1.73369
C         -4.21049        3.23467        0.43268
C         -3.49792        2.19196       -0.14520
C         -2.49621        1.54979        0.54221
C         -2.19257        1.93641        1.82551
C         -2.88611        2.96154        2.45107
H         -4.42890        4.40399        2.19759
H         -3.70202        1.90754       -1.16254
H         -1.40954        1.43407        2.36254
C          5.01561       -2.68119        2.13026
C          3.70656       -3.11999        2.29157
C          2.71237       -2.46739        1.57665
C          3.01921       -1.42337        0.74074
C          4.31674       -0.99943        0.59586
C          5.34540       -1.62378        1.29044
H          5.80345       -3.16490        2.67643
H          1.68134       -2.75666        1.69734
H          4.51826       -0.16856       -0.05611
C          3.04474        3.55040       -1.37161
C          2.12083        3.41886       -0.34156
C          1.71504        2.13669        0.00059
C          2.20329        1.04398       -0.67457
C          3.11700        1.19017       -1.68857
C          3.56500        2.45500       -2.05126
H          3.38540        4.53021       -1.64854
H          1.02269        1.98993        0.81142
H          3.48118        0.30762       -2.18626
Pd        -0.06027       -0.41202        1.34587
C         -2.62732       -5.86736       -1.09957
C         -2.81933       -4.84718        0.03736
C         -4.01462       -5.26357        0.91299
C         -1.54896       -4.84798        0.91249
H         -1.80067       -5.57322       -1.74476
H         -2.40759       -6.85780       -0.70141
H         -3.52102       -5.94811       -1.71698
H         -3.84534       -6.24007        1.36637
H         -4.17313       -4.54163        1.71391
H         -4.93177       -5.32061        0.32779
H         -1.35506       -5.84273        1.31323
H         -0.67480       -4.54884        0.33540
H         -1.65302       -4.16811        1.75787
C         -6.26256       -3.13163       -3.39203
C         -5.69422       -1.79922       -2.86518
C         -5.31788       -0.92838       -4.08062
C         -6.77874       -1.08549       -2.03981
H         -6.64697       -3.74771       -2.57970
H         -7.08706       -2.95422       -4.08253
H         -5.49807       -3.69776       -3.92411
H         -6.17556       -0.79214       -4.73921
H         -4.97935        0.06153       -3.77846
H         -4.52335       -1.39554       -4.66093
H         -7.06993       -1.68999       -1.18102
H         -6.41584       -0.12927       -1.66508
H         -7.66878       -0.89767       -2.64004
C         -6.29260        2.94896       -0.94476
C         -5.27425        3.96723       -0.39755
C         -4.58230        4.68676       -1.56999
C         -6.03522        5.01102        0.44232
H         -7.08613        3.45015       -1.49879
H         -5.81852        2.23781       -1.61960
H         -6.75115        2.38717       -0.13123
H         -4.06818        3.97828       -2.21886
H         -5.30589        5.23150       -2.17612
H         -3.84356        5.39898       -1.20263
H         -6.80493        5.50047       -0.15434
H         -6.52551        4.54376        1.29622
H         -5.36348        5.78664        0.80953
C         -1.04756        3.72080        3.98425
C         -2.53302        3.32331        3.90112
C         -2.78847        2.09810        4.79903
C         -3.38220        4.49935        4.41943
H         -0.84097        4.57360        3.33859
H         -0.77401        3.99586        5.00262
H         -0.39981        2.90040        3.67809
H         -3.83105        1.78713        4.73796
H         -2.17100        1.25224        4.49873
H         -2.56230        2.32300        5.84102
H         -3.11436        4.74607        5.44674
H         -3.22578        5.39213        3.81415
H         -4.44372        4.25296        4.40639
C          2.57643       -5.35420        2.44950
C          3.31360       -4.25841        3.24280
C          2.38469       -3.69831        4.33650
C          4.54623       -4.88835        3.91841
H          2.30631       -6.18888        3.09608
H          1.65987       -4.97194        2.00170
H          3.20598       -5.73812        1.64701
H          2.88147       -2.90370        4.89258
H          1.47397       -3.28212        3.90722
H          2.09629       -4.47724        5.04192
H          4.25048       -5.70186        4.58077
H          5.23240       -5.29815        3.17743
H          5.08280       -4.15405        4.51888
C          7.66360       -2.34143        0.65403
C          6.80657       -1.16880        1.16497
C          7.31585       -0.71387        2.54484
C          6.95307        0.00761        0.17890
H          8.70451       -2.04100        0.53531
H          7.63692       -3.18299        1.34520
H          7.30056       -2.69039       -0.31254
H          7.28107       -1.52782        3.26800
H          8.34653       -0.36472        2.48493
H          6.70438        0.10194        2.92999
H          6.37632        0.87147        0.50904
H          7.99463        0.31845        0.09882
H          6.61563       -0.27326       -0.81845
C          2.12657        5.95253       -0.08574
C          1.58906        4.61611        0.46024
C          2.03421        4.46969        1.92694
C          0.05133        4.64853        0.38749
H          3.21339        5.99635       -0.01817
H          1.83778        6.09400       -1.12716
H          1.72759        6.79115        0.48483
H          3.12129        4.44028        1.99761
H          1.67861        5.30534        2.52935
H          1.64818        3.55086        2.36640
H         -0.35023        5.48072        0.96519
H         -0.28084        4.76776       -0.64288
H         -0.38435        3.73102        0.77967
C          5.85062        3.37653       -2.50787
C          4.63465        2.66642       -3.13236
C          4.05403        3.53095       -4.26551
C          5.11299        1.32906       -3.73060
H          5.58071        4.35689       -2.11724
H          6.25807        2.78912       -1.68518
H          6.64076        3.51811       -3.24506
H          3.19210        3.04309       -4.71831
H          3.73230        4.50423       -3.89690
H          4.79485        3.69809       -5.04721
H          5.54932        0.69013       -2.96333
H          4.29090        0.79089       -4.20011
H          5.87435        1.49647       -4.49234
H         -2.40787       -2.34329       -4.20474
H          1.93889       -0.73772       -4.20414
H         -1.08667       -1.85656       -5.26619
H         -1.79228       -0.69573       -4.13623
H          2.13989        0.69675       -5.20680
H          0.78019       -0.38568       -5.48890
