111
-148.55455754
P         -1.62822        2.78615        0.05704
P         -0.54101       -0.15299        0.43531
C         -1.50237        2.08024        1.72350
C         -1.10210        0.77031        1.88271
C         -0.40186        4.15538       -0.15463
C          0.60515        3.80737       -1.23003
C         -1.78062        2.85438        2.83197
H         -2.05359        3.88888        2.70344
C         -1.68466        2.30507        4.09872
H         -1.90589        2.90826        4.96409
C         -1.30122        0.98709        4.25504
H         -1.22264        0.56012        5.24132
C         -0.99951        0.22078        3.14400
H         -0.66983       -0.79957        3.25341
Pd        -1.51761        0.95955       -1.35053
Cl        -2.81682        1.95434       -2.88394
Cl        -1.25930       -0.87146       -2.63159
C         -1.27908        5.37985       -0.48776
C         -3.20243        3.72298       -0.21384
H          0.10264        3.60628       -2.17845
H          1.31229        4.62378       -1.39419
H          1.17605        2.91461       -0.96824
H         -1.25112        5.54590       -1.57336
H         -0.85086        6.29009       -0.04175
H         -3.47826        3.54504       -1.26137
C         -2.75522        5.18501       -0.03802
C         -4.31949        3.27421        0.70384
H          0.08766        4.28014        0.82021
H         -2.86158        5.46632        1.01853
H         -3.42732        5.85933       -0.59069
H         -4.52540        2.20827        0.58298
H         -4.06220        3.44053        1.75012
H         -5.24296        3.82224        0.50366
C         -0.52772       -4.65514        1.12412
C         -1.43527       -4.09616        0.18795
C         -1.44380       -2.72103        0.02238
C         -0.54496       -1.92492        0.68194
C          0.41254       -2.47221        1.49626
C          0.46896       -3.83849        1.71633
O         -0.63371       -6.02371        1.48922
C         -2.40072       -4.95598       -0.64359
H         -2.14353       -2.25037       -0.64557
H          1.12504       -1.80987        1.95791
C          1.58598       -4.40827        2.60468
C          3.60176        1.40560       -0.63016
C          2.90386        0.57177       -1.54382
C          1.65098        0.10970       -1.18053
C          1.12332        0.38671        0.05218
C          1.84092        1.09101        0.98177
C          3.10401        1.57680        0.68942
O          4.74152        2.13246       -1.06039
C          3.44072        0.16538       -2.92548
H          1.04243       -0.43796       -1.88012
H          1.39467        1.27729        1.94349
C          3.88044        2.26893        1.82138
C         -1.79376       -6.33902       -0.94247
C         -3.72723       -5.11260        0.11454
C         -2.68671       -4.28732       -2.00808
C          1.99306       -5.81995        2.14491
C          2.85259       -3.52524        2.52441
C          1.10587       -4.44438        4.06343
C         -1.50970       -6.26599        2.58276
H         -2.44849       -6.92334       -1.58848
H         -0.83026       -6.23525       -1.44036
H         -1.63775       -6.90956       -0.03031
H         -4.43603       -5.70987       -0.45846
H         -3.57719       -5.59936        1.07523
H         -4.18035       -4.13964        0.30304
H         -3.25892       -4.95306       -2.65365
H         -3.26814       -3.37353       -1.89639
H         -1.75759       -4.04019       -2.52096
H          2.29224       -5.81077        1.09736
H          2.82855       -6.19823        2.73340
H          1.17123       -6.52381        2.25085
H          2.69573       -2.55148        2.98624
H          3.68558       -3.99540        3.04659
H          3.15215       -3.36986        1.48821
H          1.88236       -4.83501        4.72065
H          0.84364       -3.44413        4.40758
H          0.22545       -5.07302        4.17292
H         -1.93904       -5.32968        2.94145
H         -2.30949       -6.93660        2.26912
H         -0.95981       -6.74723        3.39138
C          4.41518        3.40888       -1.58588
C          4.95039        0.42419       -3.06727
C          3.21946       -1.34906       -3.13604
C          2.67889        0.94022       -4.01411
C          5.37123        2.44880        1.48691
C          3.24622        3.64021        2.10923
C          3.80624        1.39942        3.09642
H          5.17328        1.48783       -3.03150
H          5.50047       -0.05962       -2.26093
H          5.32742        0.04054       -4.01501
H          3.65885       -1.67861       -4.07715
H          3.68058       -1.92040       -2.33093
H          2.16137       -1.60349       -3.16633
H          1.60932        0.73944       -3.95893
H          2.82001        2.01379       -3.90553
H          3.02263        0.65504       -5.00794
H          5.91967        2.84860        2.33952
H          5.82030        1.49564        1.20996
H          5.50971        3.13610        0.65593
H          2.20105        3.53312        2.39814
H          3.76769        4.14785        2.92022
H          3.28299        4.28324        1.23193
H          4.17801        0.39446        2.89806
H          2.78718        1.31343        3.46992
H          4.40937        1.82951        3.89561
H          5.32809        3.90648       -1.91365
H          3.73917        3.30381       -2.43273
H          3.92986        4.01548       -0.82326
