171
-217.84235904
P         -1.65059        0.34474       -0.45534
P          1.64767       -0.37343       -0.41866
C         -0.96286        1.27565       -1.82087
C          0.96843       -1.37409       -1.74161
C         -0.12247        0.65609       -2.73830
C          0.47501        1.44312       -3.74120
C          0.17058        2.79236       -3.81728
C         -0.69641        3.37777       -2.91925
C         -1.25314        2.61497       -1.91165
C          1.26274       -2.71596       -1.75468
C          0.70434       -3.54012       -2.71146
C         -0.17220       -3.01337       -3.63574
C         -0.48139       -1.66330       -3.63900
C          0.12210       -0.81372       -2.69204
Cl         1.53436        0.48816        2.75569
Cl        -1.55167       -0.43297        2.75963
C         -1.43183       -1.13646       -4.65562
C          1.40320        0.84233       -4.73719
H         -0.93341        4.42624       -2.99799
H         -1.91958        3.06532       -1.19348
H          1.93343       -3.12176       -1.01446
H          0.94524       -4.59052       -2.72809
H          0.61942        3.38609       -4.59568
H         -0.62668       -3.65474       -4.37200
C         -4.04629       -3.30342       -1.63645
C         -4.37993       -2.07695       -2.20141
C         -3.61170       -0.97221       -1.85333
C         -2.56663       -1.10117       -0.97203
C         -2.25400       -2.31713       -0.41894
C         -2.99278       -3.44784       -0.74064
H         -4.62993       -4.16689       -1.89054
H         -3.83998        0.00139       -2.25441
H         -1.43751       -2.37966        0.28065
C         -4.13138        2.85556        2.39584
C         -4.74579        1.80532        1.72480
C         -3.98034        1.06922        0.82862
C         -2.66368        1.38959        0.60784
C         -2.07661        2.43793        1.27314
C         -2.79793        3.18857        2.19136
H         -4.70783        3.41105        3.11133
H         -4.39773        0.22160        0.31508
H         -1.03415        2.64952        1.10332
C          4.21944       -2.75633        2.45964
C          2.88652       -3.11089        2.29901
C          2.13135       -2.39263        1.38099
C          2.69186       -1.35810        0.67169
C          4.00921       -1.01527        0.85154
C          4.80501       -1.71640        1.74908
H          4.81406       -3.29320        3.17573
H          1.08868       -2.61621        1.23335
H          4.40451       -0.17976        0.30203
C          3.94106        3.30277       -1.71406
C          2.88713        3.44493       -0.81872
C          2.17492        2.30535       -0.46904
C          2.52061        1.08181       -0.98546
C          3.56878        0.95560       -1.86367
C          4.30656        2.07021       -2.24452
H          4.49814        4.17445       -1.99772
H          1.34960        2.36724        0.21960
H          3.82193       -0.02220       -2.23867
Pd        -0.01026       -0.00303        1.18173
C         -6.58841       -0.92717       -2.47292
C         -5.59087       -1.89773       -3.13091
C         -6.31330       -3.23339       -3.39383
C         -5.13105       -1.32320       -4.48270
H         -6.13837        0.05183       -2.31235
H         -7.47062       -0.78989       -3.09793
H         -6.91615       -1.31117       -1.50719
H         -7.16342       -3.08787       -4.06028
H         -5.64532       -3.95460       -3.86450
H         -6.69230       -3.66431       -2.46730
H         -5.98226       -1.14984       -5.14095
H         -4.61056       -0.37477       -4.35565
H         -4.45807       -2.01619       -4.98569
C         -1.21928       -5.19889       -0.50301
C         -2.63923       -4.78717       -0.07892
C         -3.61586       -5.90584       -0.48919
C         -2.69972       -4.62622        1.45215
H         -0.92165       -6.13212       -0.02527
H         -1.16959       -5.34099       -1.58211
H         -0.49161       -4.43496       -0.23340
H         -3.35525       -6.84429        0.00013
H         -4.63818       -5.65764       -0.20442
H         -3.58741       -6.07729       -1.56508
H         -2.45943       -5.56352        1.95359
H         -1.99578       -3.87216        1.80082
H         -3.69692       -4.31988        1.76724
C         -6.72160        0.32006        1.12378
C         -6.20759        1.45230        2.03363
C         -7.09551        2.69104        1.81119
C         -6.31300        0.99098        3.49827
H         -7.76645        0.09498        1.33721
H         -6.65189        0.60601        0.07499
H         -6.15122       -0.59655        1.27302
H         -7.00385        3.05060        0.78643
H         -8.14408        2.45635        1.99372
H         -6.81785        3.50590        2.47845
H         -5.67526        0.12489        3.67442
H         -6.00192        1.77895        4.18325
H         -7.33702        0.71433        3.74847
C         -0.93771        3.66149        3.79639
C         -2.08369        4.29311        2.98246
C         -3.03906        5.00968        3.95551
C         -1.51311        5.33431        2.00358
H         -0.40903        4.41551        4.37897
H         -1.32418        2.91006        4.48447
H         -0.21278        3.17164        3.14776
H         -3.86690        5.47494        3.42071
H         -3.44693        4.31399        4.68856
H         -2.51636        5.79446        4.50222
H         -2.30757        5.77412        1.40101
H         -1.00774        6.13859        2.53793
H         -0.79233        4.88075        1.32657
C          2.41564       -3.85040        4.64574
C          2.28151       -4.22897        3.15916
C          3.02933       -5.54578        2.88400
C          0.78744       -4.43947        2.84746
H          1.96903       -4.61209        5.28456
H          3.46018       -3.74283        4.93532
H          1.91380       -2.90386        4.84611
H          4.08542       -5.46194        3.13778
H          2.60909       -6.36283        3.47022
H          2.95849       -5.81489        1.83020
H          0.36890       -5.23106        3.46877
H          0.21609       -3.53163        3.04053
H          0.64407       -4.72710        1.80693
C          6.40298       -0.83792        3.46308
C          6.26927       -1.33953        2.01409
C          6.74905       -0.22712        1.06242
C          7.16576       -2.57434        1.80434
H          5.76025        0.02616        3.63072
H          6.11578       -1.61035        4.17566
H          7.42941       -0.54440        3.68226
H          7.79555        0.01595        1.24593
H          6.65953       -0.54328        0.02388
H          6.17077        0.68650        1.19913
H          6.91294       -3.37353        2.49985
H          7.05423       -2.96282        0.79218
H          8.21558       -2.32355        1.95558
C          1.13334        5.22508       -0.80462
C          2.48852        4.80037       -0.21724
C          3.52784        5.89368       -0.53210
C          2.37485        4.67236        1.31491
H          0.80017        6.17237       -0.38109
H          1.20465        5.34388       -1.88547
H          0.37057        4.47498       -0.60172
H          3.59655        6.07631       -1.60421
H          3.25286        6.83574       -0.05780
H          4.51446        5.61223       -0.16430
H          2.12329        5.63064        1.76901
H          1.60310        3.95998        1.60106
H          3.31740        4.33245        1.74334
C          6.21394        3.24431       -3.46161
C          5.51362        1.90045       -3.18076
C          5.05002        1.30714       -4.52256
C          6.53203        0.95161       -2.52316
H          5.53443        3.94832       -3.94170
H          6.58585        3.69339       -2.54083
H          7.06611        3.10404       -4.12657
H          4.35399        1.98167       -5.01941
H          5.89604        1.14924       -5.19130
H          4.55346        0.34787       -4.38193
H          6.09957       -0.03307       -2.34987
H          7.41065        0.82265       -3.15497
H          6.86245        1.34992       -1.56420
H         -2.24584       -1.84224       -4.82154
H          0.86388        0.51319       -5.62596
H         -0.93295       -0.97403       -5.61172
H         -1.87261       -0.19090       -4.33679
H          1.92724       -0.01877       -4.32000
H          2.15342        1.56669       -5.05461
