58
-89.86207854
P          1.68485        0.20247        0.84584
C          2.31345        1.85541        0.49575
C          2.73571        2.68456        1.51152
C          3.22765        3.94301        1.21452
C          3.30129        4.36325       -0.09865
C          2.89149        3.52530       -1.11597
C          2.40166        2.26880       -0.81395
H          2.10840        1.59103       -1.59805
H          2.69458        2.34525        2.53336
C          2.93705       -1.02815        0.46557
C          2.57816       -2.35074        0.33961
C          3.54071       -3.29819        0.04079
C          4.85603       -2.91318       -0.12868
C          5.21118       -1.58472       -0.00142
C          4.24622       -0.63954        0.29672
H          4.50641        0.40228        0.39292
H          1.54597       -2.63713        0.46180
C          1.25967        0.03781        2.62939
C          0.14014       -0.95550        2.89997
C         -1.23860       -0.36197        2.66722
P         -1.68599       -0.15112        0.88883
C         -2.71259       -1.54887        0.42094
C         -4.04545       -1.36050        0.13653
C         -4.82778       -2.43864       -0.23588
C         -4.26701       -3.69778       -0.32181
C         -2.92821       -3.88134       -0.03699
C         -2.14849       -2.80116        0.33598
H         -1.09970       -2.92845        0.55198
H         -4.46619       -0.37004        0.19972
C         -2.58423        1.39281        0.64017
C         -2.67207        1.91887       -0.62874
C         -3.36093        3.09681       -0.84811
C         -3.97200        3.74023        0.20898
C         -3.90148        3.20247        1.47861
C         -3.20930        2.02400        1.69316
H         -3.17221        1.58920        2.67830
H         -2.22842        1.38364       -1.45123
Pd         0.01333       -0.25667       -0.70620
Cl         1.63964       -0.49090       -2.24391
Cl        -1.60038       -0.63670       -2.22700
H         -2.02299       -0.98656        3.10255
H         -1.30863        0.61347        3.15118
H          0.27474       -1.85073        2.27955
H          0.21029       -1.30939        3.94055
H          2.18695       -0.25228        3.13030
H          0.98814        1.02416        3.00938
H          3.55609        4.59366        2.00838
H          2.95840        3.84578       -2.14266
H          3.26238       -4.33396       -0.06403
H          6.23684       -1.28348       -0.13746
H         -5.87136       -2.29450       -0.46258
H         -2.48929       -4.86286       -0.10936
H         -3.42693        3.50580       -1.84294
H         -4.38825        3.69841        2.30236
H          3.68515        5.34351       -0.32997
H          5.60614       -3.65050       -0.36404
H         -4.87452       -4.53833       -0.61525
H         -4.51167        4.65814        0.04170
