45
-71.81440976
C          0.31582        0.65018        2.49449
P          0.93547        0.63456        0.77802
P         -1.61671        0.25003       -1.04212
C         -2.38972       -0.10747       -2.65481
Cl         1.84823       -2.37999        0.29119
H         -0.76963        0.68998        2.49453
H         -3.21342        0.57730       -2.83489
Cl        -1.11148       -2.83430       -1.33453
C          0.28533        2.03159       -0.16096
C         -0.81180        1.86447       -0.97782
C         -1.31737        2.93438       -1.68735
C         -0.70977        4.17365       -1.58670
C          0.39428        4.33926       -0.77283
C          0.89282        3.26577       -0.05589
H         -2.18697        2.79704       -2.30916
H         -1.10081        5.01058       -2.14154
H          0.86696        5.30444       -0.69427
H          1.75312        3.37948        0.58415
Pd         0.05049       -1.19664       -0.33135
H         -2.76966       -1.12507       -2.66243
H          0.70013        1.51979        3.01985
H         -1.65554        0.00059       -3.44806
C         -4.47976       -0.19249        2.45918
C         -3.98766        1.05525        2.12848
C         -3.12617        1.19400        1.05525
C         -2.76925        0.08655        0.32115
C         -3.24807       -1.15949        0.65270
C         -4.11023       -1.30192        1.72404
H         -5.15077       -0.30124        3.29556
H         -4.27236        1.91941        2.70592
H         -2.72684        2.15933        0.78906
H         -2.91929       -2.01476        0.08429
H         -4.48638       -2.27678        1.98741
C          5.46746        0.48287        0.40943
C          4.67940        0.69428       -0.70445
C          3.30282        0.74500       -0.57419
C          2.72611        0.58821        0.66562
C          3.50721        0.37227        1.77801
C          4.88367        0.32098        1.65039
H          6.53976        0.44013        0.30952
H          5.13381        0.81567       -1.67399
H          2.67222        0.90345       -1.43526
H          3.04084        0.23779        2.74031
H          5.49886        0.15012        2.51854
H          0.63306       -0.25009        3.01299
