105
-153.06758517
Cl         0.20026        2.77111        2.76373
Pd        -0.17815        1.71505        0.80691
P         -0.74064        0.54619       -1.17055
N          0.37420       -0.73303       -1.63864
C          0.53872       -2.10632       -1.41867
C          0.02013       -2.81554       -0.30317
C          0.38854       -4.16272       -0.10168
C         -0.01492       -4.85460        1.17958
C          0.87134       -6.06010        1.52368
C          0.99017       -6.99373        0.31541
C          1.60943       -6.26415       -0.88875
C          1.18617       -4.82174       -1.04029
C          1.65677       -4.11674       -2.14055
C          1.35866       -2.79061       -2.31467
H          1.75839       -2.25247       -3.15684
H          2.28699       -4.62315       -2.85215
H          2.70294       -6.29363       -0.81027
H          1.57244       -7.88989        0.57221
H          1.86981       -5.70651        1.80992
H          0.00107       -4.12770        2.00142
C         -0.72099       -2.10959        0.76880
C          0.01065       -1.24077        1.61436
C         -0.64882       -0.61613        2.67244
C         -1.97886       -0.85460        2.90516
C         -2.70866       -1.72861        2.10613
C         -4.15429       -1.98412        2.47044
C         -4.91624       -2.94779        1.53870
C         -3.98654       -4.00183        0.92691
C         -2.85390       -3.30988        0.15833
C         -2.07807       -2.36022        1.03149
H         -2.18582       -4.04185       -0.30880
H         -4.54098       -4.69500        0.27867
H         -5.38727       -2.37725        0.72936
H         -4.67394       -1.01890        2.51943
H         -2.47412       -0.36448        3.72616
H         -0.09783        0.06646        3.29467
N          1.36717       -1.00954        1.36162
P          1.88404        0.65564        1.10538
C          2.68833        0.85355       -0.48174
C          2.37075        1.94183       -1.26042
C          2.84533        2.01879       -2.55610
C          3.63428        1.00523       -3.08079
C          3.97638       -0.06544       -2.26612
C          3.50346       -0.14189       -0.96832
H          3.74081       -0.98997       -0.34590
H          4.60406       -0.84707       -2.65901
C          4.13469        1.08596       -4.48072
H          2.58573        2.85985       -3.17623
H          1.73137        2.71622       -0.86700
C          2.84279        1.33268        2.44993
C          2.90034        0.63702        3.63283
C          3.61165        1.15604        4.70003
C          4.25994        2.37900        4.58640
C          4.19438        3.06141        3.37838
C          3.48260        2.54069        2.31256
H          3.41852        3.07229        1.37634
H          4.70135        4.00593        3.27866
C          5.04294        2.93068        5.72666
H          3.66495        0.61433        5.62884
H          2.38876       -0.30906        3.71210
H          1.77032       -1.54369        0.60478
H          1.19114       -0.22893       -1.96369
C         -0.60555        1.76304       -2.48902
C         -0.91811        3.08735       -2.29730
C         -0.77054        3.99079       -3.33171
C         -0.30917        3.57412       -4.57278
C         -0.02384        2.22870       -4.75971
C         -0.17107        1.32844       -3.71961
H          0.06071        0.28514       -3.86131
H          0.31868        1.89065       -5.72276
C         -0.16588        4.54323       -5.69409
H         -1.01582        5.02830       -3.18145
H         -1.28833        3.40783       -1.33920
C         -2.41571       -0.07622       -1.28065
C         -2.68064       -0.93918       -2.31833
C         -3.97272       -1.38921       -2.53042
C         -5.00574       -0.98224       -1.69744
C         -4.72086       -0.09969       -0.66368
C         -3.43211        0.35668       -0.46347
H         -3.22147        1.08002        0.30458
H         -5.51751        0.24023       -0.02429
C         -6.39267       -1.47256       -1.92839
H         -4.18472       -2.06486       -3.34133
H         -1.87237       -1.25500       -2.95946
Cl        -2.07142        2.91490        0.61401
H          1.37031       -6.79713       -1.81784
H          0.48413       -6.59797        2.40064
H         -0.00815       -7.36086        0.04547
H         -1.05587       -5.18514        1.09867
H         -3.55888       -4.61804        1.72748
H         -3.27904       -2.74378       -0.67428
H         -4.17813       -2.37649        3.49431
H         -5.74734       -3.42888        2.07305
H          3.43004        1.62090       -5.11923
H          5.09077        1.60950       -4.52116
H          4.27616        0.09138       -4.90605
H          6.07928        2.59285        5.68458
H          5.04318        4.02147        5.71252
H          4.62355        2.61312        6.68232
H         -1.09332        4.61628       -6.26363
H          0.08158        5.53922       -5.32416
H          0.62698        4.23858       -6.37872
H         -7.05565       -1.19349       -1.10831
H         -6.80356       -1.05362       -2.84794
H         -6.41148       -2.55996       -2.01532
