105
-153.06140773
Cl         3.18590        1.13147       -1.28801
Pd         0.95371        0.82168       -1.16261
P         -1.38740        0.78116       -1.10416
N         -1.48619       -0.74983       -1.97253
C         -0.54879       -1.74114       -1.64543
C         -0.40712       -2.24629       -0.32444
C          0.59252       -3.20006       -0.04635
C          0.70670       -3.76424        1.34909
C          2.02697       -4.50082        1.62012
C          2.34396       -5.48085        0.48808
C          2.45011       -4.75117       -0.86021
C          1.41128       -3.67573       -1.07375
C          1.25324       -3.17204       -2.35893
C          0.29956       -2.23021       -2.64265
H          0.20566       -1.83948       -3.64065
H          1.89649       -3.53544       -3.14248
H          3.44406       -4.30166       -0.95854
H          3.26683       -6.03763        0.70426
H          2.83992       -3.76933        1.70581
H          0.58761       -2.95214        2.07413
C         -1.44504       -1.94833        0.69425
C         -1.10190       -1.31222        1.91290
C         -2.02635       -1.30378        2.95609
C         -3.27369       -1.84702        2.79842
C         -3.65219       -2.43669        1.59940
C         -5.04607       -3.00188        1.49426
C         -5.20480       -4.03409        0.36909
C         -4.58197       -3.51155       -0.92788
C         -3.08619       -3.20810       -0.74275
C         -2.73750       -2.49579        0.54376
H         -2.51046       -4.14011       -0.78841
H         -5.10269       -2.59576       -1.23513
H         -6.26256       -4.29327        0.21911
H         -5.74717       -2.17344        1.33774
H         -3.98229       -1.80916        3.60846
H         -1.75350       -0.83485        3.88544
N          0.14516       -0.73222        2.13786
P          1.22880        0.17865        1.08913
C          2.78864       -0.71075        1.12949
C          3.48292       -0.71636        2.31629
C          4.68710       -1.39196        2.40822
C          5.21037       -2.05439        1.30642
C          4.49190       -2.04192        0.11946
C          3.28018       -1.38183        0.03626
H          2.71748       -1.37898       -0.88333
H          4.89283       -2.54639       -0.74277
C          6.49425       -2.80176        1.40505
H          5.22964       -1.40470        3.33800
H          3.08010       -0.19024        3.16791
C          1.53423        1.77078        1.88064
C          2.42207        2.66329        1.32968
C          2.64513        3.88632        1.93205
C          1.97318        4.23227        3.09583
C          1.08955        3.31679        3.64979
C          0.87299        2.09305        3.04350
H          0.17458        1.39388        3.47101
H          0.57107        3.56878        4.55917
C          2.22645        5.54102        3.75961
H          3.34416        4.58174        1.49969
H          2.93863        2.39872        0.42322
H          0.46081       -0.61878        3.09321
H         -1.46929       -0.46865       -2.94436
C         -1.63477        2.19206       -2.18694
C         -2.43312        2.07628       -3.29935
C         -2.62089        3.16986       -4.12529
C         -2.00852        4.38334       -3.84177
C         -1.22226        4.48423       -2.70193
C         -1.03633        3.39043       -1.87617
H         -0.42479        3.46601       -0.99040
H         -0.75500        5.42481       -2.46516
C         -2.22600        5.56620       -4.71985
H         -3.24606        3.08651       -4.99785
H         -2.91336        1.13564       -3.51518
C         -2.46454        1.00933        0.29638
C         -1.97388        1.67614        1.39141
C         -2.80402        1.92351        2.46940
C         -4.13254        1.51944        2.44298
C         -4.60991        0.85849        1.31824
C         -3.77737        0.60965        0.24176
H         -4.14039        0.10134       -0.63742
H         -5.63619        0.53442        1.29323
C         -5.01614        1.74600        3.61948
H         -2.42186        2.42761        3.34041
H         -0.94194        1.98499        1.40095
Cl         0.83671        1.05796       -3.39941
H          2.37840       -5.47313       -1.68386
H          1.99505       -5.01929        2.58885
H          1.55077       -6.23712        0.43244
H         -0.13931       -4.43983        1.52201
H         -4.73655       -4.22633       -1.74850
H         -2.73332       -2.60423       -1.58598
H         -5.32587       -3.44468        2.45880
H         -4.70948       -4.96923        0.65950
H          6.31437       -3.84840        1.65471
H          7.04063       -2.76967        0.46140
H          7.13967       -2.37755        2.17541
H          3.03566        5.45650        4.48622
H          2.50585        6.30418        3.03187
H          1.33784        5.89453        4.28453
H         -1.36055        6.23017       -4.70682
H         -2.39379        5.26287       -5.75419
H         -3.09467        6.13834       -4.39123
H         -6.05639        1.86566        3.31352
H         -4.96313        0.90344        4.31039
H         -4.72523        2.64600        4.16302
