111
-148.55236445
P         -2.73097        1.78842       -0.34332
P          0.17506        0.63882        0.15376
C         -1.81885        2.24909        1.15896
C         -0.53152        1.79294        1.34199
C         -3.90737        3.14012       -0.81949
C         -3.69652        3.59905       -2.24511
C         -2.40632        3.04520        2.12223
H         -3.42060        3.38363        1.98951
C         -1.69715        3.38958        3.26012
H         -2.15608        4.01170        4.01113
C         -0.40442        2.93514        3.43637
H          0.14646        3.20053        4.32367
C          0.17831        2.12852        2.47593
H          1.17901        1.74792        2.60672
Pd        -1.12878        0.88010       -1.75097
Cl        -2.61816        0.94211       -3.42105
Cl         0.51666       -0.06778       -2.94904
C         -5.28914        2.50023       -0.56678
C         -3.91523        0.39004       -0.08242
H         -4.35557        4.43212       -2.50068
H         -2.66526        3.91824       -2.41221
H         -3.90901        2.78942       -2.94406
H         -6.01635        2.90211       -1.28730
H         -5.66286        2.79483        0.42488
H         -3.54901       -0.45574       -0.68083
C         -5.23413        0.94856       -0.65414
C         -3.99068        0.01026        1.38031
H         -3.72472        3.97418       -0.12907
H         -6.08541        0.49911       -0.12213
H         -5.34369        0.64071       -1.70456
H         -3.01252       -0.28908        1.76161
H         -4.33179        0.85580        1.98053
H         -4.68511       -0.81693        1.54577
C         -1.30800       -3.51270        1.29275
C         -0.92715       -3.24197       -0.04614
C         -0.46665       -1.97368       -0.34994
C         -0.33348       -1.01589        0.61951
C         -0.59143       -1.30672        1.93310
C         -1.03689       -2.56227        2.31084
O         -1.99937       -4.71335        1.60455
C         -1.06254       -4.27481       -1.17464
H         -0.21819       -1.70346       -1.36116
H         -0.45862       -0.52798        2.66360
C         -1.24902       -2.85910        3.80335
C          4.71956        0.88416        0.02788
C          3.95650        1.55151       -0.96467
C          2.57482        1.48831       -0.88495
C          1.95874        0.73217        0.07679
C          2.69254       -0.00216        0.97182
C          4.07700        0.02317        0.95355
O          6.12056        1.10161        0.11417
C          4.60421        2.34072       -2.11348
H          1.95595        2.02397       -1.58386
H          2.16234       -0.60260        1.69098
C          4.85371       -0.86108        1.94175
C          0.00307       -4.03146       -2.26789
C         -0.84840       -5.70484       -0.64722
C         -2.45481       -4.14558       -1.81153
C         -0.23300       -2.07106        4.66152
C         -2.66877       -2.43713        4.21136
C         -1.03017       -4.35178        4.10993
C         -3.41509       -4.59671        1.53509
H         -0.00467       -4.83686       -3.00184
H         -0.17897       -3.10474       -2.81004
H          1.00100       -3.98409       -1.83295
H         -0.88240       -6.43113       -1.45888
H          0.11967       -5.79102       -0.15489
H         -1.61449       -5.98074        0.07314
H         -2.60314       -3.14287       -2.21213
H         -2.57871       -4.85698       -2.62751
H         -3.24032       -4.32978       -1.08250
H          0.78568       -2.25335        4.32017
H         -0.41940       -0.99876        4.62615
H         -0.29453       -2.37173        5.70718
H         -3.42005       -2.96492        3.62853
H         -2.85054       -2.64721        5.26503
H         -2.81491       -1.36919        4.05179
H         -0.04068       -4.66937        3.78268
H         -1.11377       -4.54895        5.17840
H         -1.76404       -4.97306        3.60286
H         -3.84953       -4.81657        2.51010
H         -3.69960       -3.58904        1.22928
H         -3.80597       -5.31781        0.81735
C          6.48760        2.19369        0.94761
C          5.95195        1.71858       -2.52205
C          3.69991        2.31590       -3.36730
C          4.80466        3.80066       -1.68047
C          5.09609       -0.07902        3.24143
C          4.05092       -2.13915        2.27785
C          6.19438       -1.31914        1.33945
H          6.37875        2.23651       -3.38055
H          6.67564        1.77261       -1.71255
H          5.82498        0.66950       -2.78716
H          2.78474        2.88623       -3.21632
H          4.21209        2.75453       -4.22329
H          3.42679        1.29363       -3.62777
H          5.45564        3.86841       -0.81213
H          5.25119        4.38791       -2.48246
H          3.85164        4.25866       -1.41678
H          5.63900       -0.68500        3.96635
H          5.67485        0.82278        3.05658
H          4.15043        0.22086        3.69257
H          4.65102       -2.82800        2.87194
H          3.15699       -1.91382        2.85749
H          3.74851       -2.65756        1.36828
H          6.03333       -1.83526        0.39359
H          6.71493       -1.99936        2.01310
H          6.85337       -0.47532        1.15064
H          7.12393        1.83770        1.75763
H          7.05226        2.92289        0.36688
H          5.59933        2.66954        1.36499
