111
-148.55743553
P         -2.73638        1.86212       -0.23730
P          0.13385        0.62176        0.21065
C         -1.82502        2.23967        1.28331
C         -0.55234        1.73774        1.45059
C         -3.71789        3.31079       -0.83877
C         -3.05943        3.96614       -2.03319
C         -2.39516        3.01470        2.27281
H         -3.39741        3.38967        2.14514
C         -1.68228        3.29079        3.42694
H         -2.12622        3.89600        4.20040
C         -0.40484        2.78968        3.59035
H          0.14845        3.00226        4.49027
C          0.16030        2.00590        2.60056
H          1.14908        1.59161        2.71951
Pd        -1.18400        0.95001       -1.67386
Cl        -2.73265        0.88732       -3.29290
Cl         0.47083        0.05111       -2.89965
C         -5.09818        2.69098       -1.12612
C         -4.08586        0.61363       -0.01972
H         -3.64194        4.81747       -2.39301
H         -2.05525        4.32043       -1.78831
H         -2.96476        3.26000       -2.85944
H         -5.13770        2.39501       -2.18357
H         -5.89113        3.44387       -1.00002
H         -3.96183       -0.11063       -0.83612
C         -5.36429        1.44640       -0.23182
C         -4.00091       -0.07418        1.32552
H         -3.78285        4.01491        0.00042
H         -5.73940        1.77347        0.74772
H         -6.16229        0.81992       -0.65857
H         -4.81787       -0.78632        1.46281
H         -3.06027       -0.61696        1.43274
H         -4.05374        0.65358        2.13728
C         -1.30148       -3.59112        1.16941
C         -0.85361       -3.27539       -0.14078
C         -0.42460       -1.98406       -0.38908
C         -0.36799       -1.05008        0.61038
C         -0.66938       -1.38685        1.90357
C         -1.09808       -2.66349        2.22627
O         -2.02764       -4.78716        1.40245
C         -0.81998       -4.27602       -1.30695
H         -0.14311       -1.68013       -1.38286
H         -0.58314       -0.63136        2.66561
C         -1.31768       -2.99188        3.71219
C          4.67712        0.83074        0.00378
C          3.90169        1.60621       -0.89630
C          2.52128        1.55355       -0.78960
C          1.91614        0.71211        0.10596
C          2.65894       -0.11772        0.90486
C          4.04272       -0.11043        0.85384
O          6.08346        1.01716        0.07487
C          4.53575        2.49806       -1.97556
H          1.89472        2.16437       -1.41627
H          2.13611       -0.78055        1.57286
C          4.82736       -1.10513        1.72360
C         -1.93617       -3.92854       -2.30645
C          0.54621       -4.18218       -2.02214
C         -0.98384       -5.73105       -0.83556
C         -2.58152       -2.27352        4.21393
C         -1.45095       -4.50359        3.96472
C         -0.09994       -2.50334        4.52760
C         -3.42478       -4.62043        1.22645
H         -1.92193       -4.60806       -3.15805
H         -2.91694       -3.99573       -1.83947
H         -1.81815       -2.91372       -2.68537
H          0.62660       -4.93427       -2.80648
H          0.69280       -3.20999       -2.48965
H          1.36105       -4.34298       -1.31680
H         -1.96903       -5.89767       -0.40644
H         -0.86296       -6.42851       -1.66409
H         -0.24283       -5.97416       -0.07485
H         -3.46313       -2.59883        3.66479
H         -2.75084       -2.47666        5.27102
H         -2.49211       -1.19461        4.09058
H         -1.50923       -4.72024        5.03114
H         -2.34819       -4.90363        3.49849
H         -0.59490       -5.03850        3.55493
H          0.00446       -1.42024        4.49054
H         -0.19636       -2.78462        5.57595
H          0.82033       -2.94367        4.14467
H         -3.92674       -5.56986        1.41379
H         -3.80239       -3.87045        1.91963
H         -3.63704       -4.29512        0.20921
C          6.49068        2.01061        1.00713
C          4.77545        3.90235       -1.40148
C          5.86052        1.89822       -2.48121
C          3.60043        2.61718       -3.20082
C          5.11898       -0.46641        3.08975
C          4.00833       -2.39746        1.94812
C          6.14244       -1.52072        1.03967
H          5.44926        3.86980       -0.54870
H          5.21307        4.56108       -2.15117
H          3.83848        4.34689       -1.06677
H          6.27641        2.49442       -3.29302
H          6.60477        1.85613       -1.68984
H          5.70630        0.88438       -2.84905
H          3.30052        1.63174       -3.55645
H          2.70106        3.18522       -2.96815
H          4.10011        3.13180       -4.02116
H          5.71362        0.43770        2.98321
H          4.19161       -0.19566        3.59414
H          5.66536       -1.15481        3.73399
H          3.67051       -2.81243        0.99876
H          4.61044       -3.15508        2.44916
H          3.13536       -2.21867        2.57416
H          6.66801       -2.27440        1.62550
H          6.81187       -0.67267        0.91868
H          5.94623       -1.93492        0.05127
H          7.05188        2.78874        0.49005
H          5.62192        2.45234        1.49682
H          7.14239        1.56281        1.75714
