72
-108.39083750
Cl        -1.90980        0.64773        2.71355
Cl         0.77461       -0.89744        2.91378
P          1.12407       -1.06720       -0.23362
P         -2.20182        0.15303       -0.43626
C         -3.24759       -1.42530       -0.28254
C         -3.67745       -1.61675        1.17358
C         -4.47210       -1.32458       -1.18565
C         -3.26570        1.71129       -0.16208
C         -4.00692        2.08670       -1.45267
C         -1.36772        0.47272       -2.10216
C         -1.41711       -0.67422       -3.09105
C          1.19321        0.25338       -1.48067
C          0.05190        1.00392       -2.00435
C          0.59680        2.03786       -2.88863
C          2.04026        1.90039       -2.92544
C          2.40775        0.79063       -2.06719
C         -2.40397       -2.63062       -0.67384
H         -4.35215       -0.83627        1.51355
H         -4.20293       -2.56528        1.29537
H         -5.15164       -0.54172       -0.85348
H         -5.03191       -2.26124       -1.17811
C         -4.28737        1.55400        0.96061
H         -3.34463        2.54359       -2.18741
H         -4.78669        2.82135       -1.24490
H         -1.96588        1.28723       -2.52012
H         -0.76740       -1.48366       -2.76672
H         -1.05091       -0.36033       -4.07074
H         -2.42425       -1.06406       -3.23085
H          0.00454        2.71696       -3.50521
H          2.72748        2.50311       -3.52271
Pd        -0.54292       -0.27448        1.19599
H          3.41820        0.42543       -1.87221
C         -2.28060        2.81059        0.19764
H         -4.48306        1.22239       -1.91261
H         -4.76164        2.51182        1.17908
H         -5.08333        0.86431        0.68661
H         -3.82203        1.21064        1.88168
H         -1.49788        2.88615       -0.55827
H         -2.78068        3.77894        0.26565
H         -1.81764        2.60901        1.16314
H         -2.81705       -1.63238        1.84241
H         -4.19500       -1.11489       -2.21737
H         -1.51179       -2.68812       -0.05280
H         -2.96226       -3.55713       -0.52941
H         -2.10040       -2.60182       -1.71662
C          2.78834       -1.23803        0.45913
C          3.70127       -2.09272       -0.10907
C          4.87882       -1.99030        0.63306
C          4.63594       -1.07260        1.62487
O          3.35937       -0.60125        1.52610
H          3.52766       -2.72040       -0.96926
H          5.79746       -2.52719        0.46173
H          5.34189       -0.75688        2.38315
C          0.71435       -2.69323       -0.88693
C          0.75604       -3.81315       -0.09398
C          0.40263       -4.89698       -0.89981
C          0.16008       -4.39013       -2.15328
O          0.34435       -3.03638       -2.15838
H          1.01814       -3.83479        0.95242
H          0.33631       -5.92934       -0.59764
H         -0.13656       -4.96594       -3.02113
Fe         1.33576        2.15923       -0.98724
C          2.14727        3.99235       -0.52710
C          3.00191        2.90079       -0.09638
C          2.26626        2.08790        0.85337
C          0.94171        2.65210        0.98561
C          0.86053        3.81462        0.11953
H          2.41941        4.79330       -1.21826
H          4.04105        2.74525       -0.39658
H          2.62436        1.17890        1.33654
H          0.17067        2.28600        1.66542
H          0.01559        4.50287        0.04491
