171
-217.83823104
P         -1.64091        0.74392        0.35791
P          1.43895       -0.26834       -0.34448
C         -0.91646        1.82008       -0.89891
C          0.47370       -0.94065       -1.71076
C         -0.35945        1.36931       -2.08970
C          0.25869        2.30328       -2.94268
C          0.27594        3.64135       -2.58697
C         -0.28726        4.07054       -1.40471
C         -0.87448        3.15130       -0.55731
C          0.56142       -2.26975       -2.04657
C         -0.18442       -2.76984       -3.09593
C         -1.03130       -1.93472       -3.79451
C         -1.14353       -0.59359       -3.46621
C         -0.35088       -0.07830       -2.42249
Cl         2.32839        1.08219        2.52133
Cl        -0.71879        0.74407        3.53382
C         -2.07776        0.28248       -4.22548
C          0.91377        1.88737       -4.21320
H         -0.26257        5.11432       -1.13747
H         -1.29790        3.46818        0.38454
H          1.21095       -2.92026       -1.48620
H         -0.10852       -3.81012       -3.36681
H          0.74993        4.34957       -3.24565
H         -1.61347       -2.32321       -4.61269
C         -3.05005       -3.41024       -0.78333
C         -3.72467       -2.29868       -1.26865
C         -3.23894       -1.04603       -0.91820
C         -2.13765       -0.92218       -0.10708
C         -1.49358       -2.03542        0.38230
C         -1.93381       -3.30829        0.03747
H         -3.41674       -4.38710       -1.03941
H         -3.72724       -0.15305       -1.26585
H         -0.64184       -1.90584        1.02512
C         -5.44994        2.78414        1.72821
C         -4.61301        2.24588        2.69762
C         -3.43939        1.63759        2.27420
C         -3.12293        1.57978        0.94119
C         -3.95837        2.12494       -0.00348
C         -5.14668        2.73827        0.37343
H         -6.36519        3.25447        2.03775
H         -2.74825        1.21790        2.98092
H         -3.66914        2.07320       -1.03952
C          3.90534       -3.61045        1.53446
C          4.04719       -3.31815        0.18480
C          3.27523       -2.29011       -0.34188
C          2.37798       -1.60556        0.44197
C          2.25360       -1.91812        1.77567
C          3.02431       -2.91761        2.35310
H          4.50912       -4.38915        1.96303
H          3.37269       -2.01432       -1.37657
H          1.56327       -1.36655        2.38449
C          4.48118        2.60283       -2.09451
C          4.20370        1.41635       -2.76254
C          3.26050        0.56238       -2.20229
C          2.63747        0.88447       -1.02102
C          2.92169        2.06338       -0.38127
C          3.84539        2.95342       -0.90943
H          5.22585        3.25874       -2.50382
H          2.99216       -0.35653       -2.69378
H          2.43574        2.28304        0.55209
Pd         0.34822        0.61191        1.56984
C         -4.61308       -3.22193       -3.42537
C         -4.98236       -2.47643       -2.13101
C         -5.61000       -1.11914       -2.50620
C         -6.02683       -3.28961       -1.34359
H         -5.49088       -3.37084       -4.05393
H         -3.88129       -2.65551       -3.99932
H         -4.18528       -4.20047       -3.21031
H         -4.91609       -0.51101       -3.08529
H         -6.50629       -1.26042       -3.10997
H         -5.89695       -0.56146       -1.61487
H         -5.65588       -4.28494       -1.10219
H         -6.27747       -2.78946       -0.40824
H         -6.94443       -3.40755       -1.91974
C         -0.91953       -5.52455       -0.60043
C         -1.27222       -4.58768        0.57081
C         -2.25173       -5.29572        1.52362
C          0.02431       -4.28089        1.33870
H         -1.80594       -5.81977       -1.15989
H         -0.23308       -5.03616       -1.29039
H         -0.43871       -6.43348       -0.23913
H         -3.17111       -5.57230        1.00851
H         -1.81042       -6.20398        1.93366
H         -2.51754       -4.64363        2.35546
H          0.49637       -5.20178        1.67963
H          0.73884       -3.76224        0.70185
H         -0.17311       -3.66429        2.21471
C         -6.33924        1.61451        4.40357
C         -4.99843        2.33788        4.18096
C         -5.13320        3.81887        4.57995
C         -3.93514        1.68434        5.08589
H         -6.62952        1.64531        5.45362
H         -7.13860        2.07399        3.82339
H         -6.26644        0.56925        4.10371
H         -5.91148        4.31590        4.00207
H         -5.38741        3.91711        5.63518
H         -4.19730        4.34992        4.40717
H         -4.22121        1.75778        6.13493
H         -3.81503        0.62722        4.85006
H         -2.96834        2.17435        4.97288
C         -7.47132        2.61924       -0.55656
C         -6.11493        3.34134       -0.65374
C         -5.58350        3.18914       -2.09310
C         -6.30041        4.84107       -0.35910
H         -7.35298        1.55168       -0.74111
H         -7.91446        2.74047        0.43120
H         -8.17614        3.01244       -1.28897
H         -4.62640        3.69640       -2.21383
H         -5.45383        2.13933       -2.35518
H         -6.27968        3.62355       -2.81040
H         -5.34408        5.36213       -0.40134
H         -6.96855        5.30183       -1.08651
H         -6.72511        5.00107        0.63120
C          4.60071       -5.59942       -0.68619
C          5.03184       -4.12159       -0.67591
C          6.44849       -3.99428       -0.08603
C          5.06408       -3.61060       -2.13013
H          3.59130       -5.70245       -1.08447
H          5.27070       -6.19749       -1.30363
H          4.60771       -6.02003        0.31876
H          6.75434       -2.94903       -0.04391
H          6.49602       -4.39794        0.92457
H          7.17408       -4.53415       -0.69422
H          5.76887       -4.18832       -2.72795
H          4.08456       -3.69868       -2.59997
H          5.37577       -2.56712       -2.17064
C          1.90016       -2.36943        4.57322
C          2.97628       -3.21338        3.85992
C          4.34601       -2.87341        4.47513
C          2.66008       -4.70206        4.09253
H          2.10640       -1.30382        4.47475
H          0.90921       -2.56755        4.16601
H          1.87092       -2.60010        5.63787
H          5.13750       -3.47856        4.03439
H          4.59254       -1.82537        4.30577
H          4.34704       -3.05170        5.55027
H          3.40971       -5.34544        3.63379
H          2.63322       -4.93128        5.15770
H          1.69036       -4.96236        3.67104
C          6.43413        0.70174       -3.62955
C          4.98724        1.04054       -4.02933
C          4.98995        2.21766       -5.02422
C          4.37010       -0.18335       -4.73563
H          7.02498        0.41856       -4.50046
H          6.91912        1.55516       -3.15647
H          6.45415       -0.12747       -2.92251
H          3.97374        2.50151       -5.29434
H          5.48459        3.09403       -4.60813
H          5.51606        1.94901       -5.94018
H          4.90784       -0.41027       -5.65609
H          4.41736       -1.07017       -4.10455
H          3.32810       -0.00087       -4.99673
C          5.17756        5.12300       -0.89738
C          4.13914        4.25866       -0.15739
C          4.68669        3.92298        1.24246
C          2.83650        5.06881       -0.02296
H          4.82691        5.38852       -1.89459
H          5.36515        6.05002       -0.35568
H          6.12848        4.59911       -0.99225
H          4.91930        4.83063        1.79890
H          3.96400        3.35177        1.82394
H          5.59734        3.32926        1.16708
H          2.08090        4.51480        0.53290
H          3.01274        6.00840        0.50018
H          2.42645        5.30093       -1.00549
H         -1.59464        0.69144       -5.11368
H          1.91706        2.30862       -4.28120
H         -2.42151        1.11700       -3.61218
H         -2.95903       -0.27169       -4.55136
H          0.34538        2.23413       -5.07740
H          1.00696        0.80312       -4.28214
