105
-153.06292264
Cl         0.13946        2.22186        2.93958
Pd        -0.37938        1.44136        0.88590
P         -1.08288        0.49643       -1.16563
N         -0.60035       -0.97474       -2.00752
C          0.24174       -2.01184       -1.61614
C          0.31857       -2.47028       -0.27756
C          1.24084       -3.48593        0.05195
C          1.30421       -3.97738        1.47887
C          2.09635       -5.27951        1.67509
C          3.38967       -5.26405        0.85534
C          3.07806       -5.10948       -0.64047
C          2.05523       -4.04237       -0.93837
C          1.91554       -3.61764       -2.25374
C          1.02548       -2.63118       -2.58873
H          0.94807       -2.29430       -3.60778
H          2.53289       -4.06493       -3.01437
H          3.99616       -4.88546       -1.19879
H          4.01842       -4.42729        1.18498
H          2.31253       -5.44895        2.73939
H          1.74644       -3.18549        2.09433
C         -0.71129       -2.07648        0.71380
C         -0.32921       -1.46306        1.93674
C         -1.29360       -1.31571        2.93748
C         -2.57970       -1.75099        2.75029
C         -2.97247       -2.35275        1.56108
C         -4.39228       -2.85438        1.45192
C         -4.81660       -3.23755        0.02531
C         -3.70881       -4.02629       -0.67726
C         -2.41613       -3.20048       -0.75512
C         -2.03867       -2.51208        0.53504
H         -1.58408       -3.84075       -1.07365
H         -4.03154       -4.34338       -1.67908
H         -5.03197       -2.32921       -0.55032
H         -5.06968       -2.09341        1.85906
H         -3.30547       -1.63161        3.53689
H         -1.01360       -0.83956        3.86076
N          0.96734       -0.98096        2.16704
P          1.62502        0.21903        1.05982
C          2.58363       -0.33399       -0.33794
C          2.36982        0.26543       -1.55462
C          3.15645       -0.08476       -2.63663
C          4.16394       -1.03065       -2.49869
C          4.38544       -1.59666       -1.24966
C          3.59668       -1.24609       -0.16860
H          3.76523       -1.67617        0.80598
H          5.17709       -2.31622       -1.12946
C          5.01412       -1.40612       -3.66157
H          2.98996        0.37359       -3.59629
H          1.58365        0.99531       -1.65168
C          2.64691        1.43205        1.90104
C          3.27377        1.11363        3.08190
C          4.06713        2.05487        3.71267
C          4.23541        3.31930        3.16416
C          3.61024        3.61338        1.95987
C          2.81791        2.67088        1.32963
H          2.32959        2.89671        0.39430
H          3.74639        4.58603        1.51886
C          5.10465        4.32682        3.83258
H          4.56129        1.81195        4.63783
H          3.14958        0.12922        3.50281
H          1.08731       -0.54103        3.07027
H         -0.85665       -0.89509       -2.98390
C         -0.70513        1.89224       -2.24187
C         -1.12059        3.15420       -1.89003
C         -0.83267        4.23223       -2.70484
C         -0.12928        4.05404       -3.88784
C          0.28654        2.77420       -4.22864
C         -0.00694        1.69840       -3.41106
H          0.31940        0.70775       -3.67893
H          0.84408        2.62546       -5.13762
C          0.20769        5.21985       -4.75096
H         -1.15056        5.22180       -2.42403
H         -1.66509        3.29006       -0.97054
C         -2.87731        0.43240       -1.09005
C         -3.56742        0.54568       -2.27394
C         -4.95071        0.50616       -2.27345
C         -5.65235        0.35462       -1.08545
C         -4.93865        0.25235        0.09997
C         -3.55631        0.27405        0.09309
H         -2.99934        0.18162        1.01196
H         -5.47252        0.15867        1.03000
C         -7.14107        0.33975       -1.07551
H         -5.49394        0.59999       -3.19817
H         -3.02058        0.67097       -3.19561
Cl        -2.33025        2.56471        1.03100
H          2.71515       -6.06272       -1.04300
H          1.47955       -6.13112        1.36160
H          3.98235       -6.17080        1.04214
H          0.28051       -4.10243        1.85369
H         -3.51542       -4.95316       -0.12277
H         -2.51529       -2.43732       -1.53575
H         -4.50240       -3.72294        2.11223
H         -5.75607       -3.80814        0.03554
H          4.45640       -1.33181       -4.59625
H          5.88316       -0.75086       -3.73419
H          5.37214       -2.43275       -3.57163
H          5.10807        4.18780        4.91456
H          6.13353        4.24641        3.47921
H          4.75741        5.34117        3.63121
H          0.35369        4.91445       -5.78801
H         -0.58986        5.96398       -4.73454
H          1.12499        5.70169       -4.40983
H         -7.52201       -0.30057       -0.27854
H         -7.53694        1.34404       -0.91897
H         -7.53820       -0.03581       -2.01960
