171
-217.84456303
P         -1.62087        0.38155       -0.43583
P          1.60776       -0.42108       -0.29590
C         -0.86356        1.27930       -1.78938
C          0.92870       -1.43010       -1.61532
C         -0.03563        0.61937       -2.69022
C          0.61483        1.37334       -3.68621
C          0.37816        2.73562       -3.76684
C         -0.47406        3.36390       -2.88332
C         -1.08623        2.63078       -1.88561
C          1.14155       -2.78668       -1.57237
C          0.57057       -3.61061       -2.52176
C         -0.22947       -3.06573       -3.50343
C         -0.45703       -1.70063       -3.56366
C          0.15073       -0.85679       -2.61473
Cl         1.40963        0.30389        2.91819
Cl        -1.72830       -0.50005        2.74081
C         -1.32310       -1.14747       -4.64005
C          1.54592        0.73578       -4.65751
H         -0.65678        4.42282       -2.96607
H         -1.74136        3.11354       -1.17815
H          1.75817       -3.20491       -0.79364
H          0.74475       -4.67375       -2.49005
H          0.87246        3.30589       -4.53523
H         -0.68847       -3.70483       -4.23879
C         -4.00380       -3.24422       -1.70609
C         -2.95581       -3.40760       -0.80865
C         -2.23438       -2.27946       -0.43996
C         -2.54188       -1.05387       -0.97509
C         -3.56958       -0.91047       -1.87451
C         -4.33700       -2.00745       -2.24682
H         -4.58093       -4.10829       -1.97612
H         -1.42937       -2.34500        0.27130
H         -3.78197        0.06703       -2.27485
C         -4.19779        2.96622        2.26682
C         -4.80054        1.94750        1.53784
C         -4.00086        1.19805        0.68548
C         -2.65814        1.45899        0.57135
C         -2.08035        2.47129        1.29758
C         -2.83851        3.24073        2.16992
H         -4.79873        3.55130        2.93575
H         -4.42601        0.38752        0.12022
H         -1.02093        2.64316        1.20775
C          4.36544       -2.76937        2.44026
C          3.02279       -3.12626        2.37821
C          2.20044       -2.41928        1.51110
C          2.70086       -1.38690        0.75802
C          4.02539       -1.03892        0.84317
C          4.88880       -1.72682        1.68389
H          5.01680       -3.31052        3.09894
H          1.15385       -2.66217        1.43699
H          4.38891       -0.21234        0.25820
C          3.91297        3.24603       -1.58106
C          2.89306        3.39116       -0.64801
C          2.16543        2.25965       -0.30404
C          2.46563        1.04263       -0.86309
C          3.48007        0.91319       -1.77918
C          4.22836        2.02160       -2.15787
H          4.49472        4.10453       -1.85857
H          1.36688        2.32062        0.41506
H          3.69172       -0.06414       -2.17897
Pd        -0.08194       -0.02751        1.27269
C         -3.84683       -5.25084        0.63216
C         -2.65283       -4.79389       -0.22442
C         -1.39281       -4.76950        0.66212
C         -2.41950       -5.79620       -1.37031
H         -3.65829       -6.22861        1.07511
H         -4.03263       -4.54343        1.44020
H         -4.75548       -5.32272        0.03533
H         -1.16997       -5.76500        1.04570
H         -0.52693       -4.42945        0.09524
H         -1.52690       -4.10976        1.51904
H         -2.16125       -6.78062       -0.98042
H         -3.30849       -5.90784       -1.98961
H         -1.60476       -5.46345       -2.01224
C         -6.32144       -3.12272       -3.39041
C         -5.52953       -1.81504       -3.19629
C         -5.02299       -1.34240       -4.56983
C         -6.48087       -0.75674       -2.60680
H         -5.69947       -3.89607       -3.84075
H         -6.70318       -3.49419       -2.43952
H         -7.17491       -2.96336       -4.04936
H         -5.85438       -1.16808       -5.25267
H         -4.46023       -0.41346       -4.48478
H         -4.37359       -2.09297       -5.01876
H         -5.99120        0.21281       -2.52762
H         -7.36298       -0.63133       -3.23446
H         -6.81373       -1.04999       -1.61127
C         -6.97842        1.93256        0.30513
C         -6.29667        1.62004        1.64841
C         -6.98268        2.44598        2.75366
C         -6.47026        0.12552        1.98366
H         -6.53633        1.35069       -0.50188
H         -8.04276        1.70115        0.34266
H         -6.86931        2.98734        0.05359
H         -6.93198        3.51286        2.53737
H         -8.03603        2.17889        2.83808
H         -6.51683        2.26582        3.72236
H         -5.94881       -0.12363        2.90759
H         -7.52303       -0.12580        2.11110
H         -6.07266       -0.51053        1.19388
C         -3.13261        5.03495        3.95481
C         -2.14205        4.30917        3.02459
C         -1.48595        5.35093        2.10201
C         -1.06406        3.63079        3.89235
H         -2.61946        5.78734        4.55363
H         -3.90874        5.54257        3.38235
H         -3.60916        4.33615        4.64205
H         -0.74040        4.88786        1.45929
H         -2.23073        5.82507        1.46311
H         -0.98976        6.12981        2.68076
H         -0.31122        3.13794        3.27876
H         -0.55513        4.35827        4.52419
H         -1.51034        2.87435        4.53741
C          2.01933       -5.41551        2.28827
C          2.42401       -4.26102        3.22096
C          1.18343       -3.73988        3.97422
C          3.43010       -4.79309        4.25959
H          1.56979       -6.23417        2.84993
H          1.29829       -5.08184        1.54394
H          2.88797       -5.80486        1.75759
H          1.44308       -2.88244        4.59464
H          0.39865       -3.42696        3.28723
H          0.76649       -4.51177        4.62067
H          2.97552       -5.56892        4.87558
H          4.30318       -5.23001        3.77551
H          3.76425       -3.99580        4.92330
C          7.16067       -2.15498        2.75168
C          6.36188       -1.29966        1.74997
C          6.44162        0.17408        2.19206
C          6.99653       -1.45555        0.35543
H          7.14796       -3.20698        2.46728
H          8.20231       -1.83609        2.78764
H          6.75280       -2.06294        3.75813
H          5.94093        0.82989        1.48060
H          5.96583        0.31016        3.16299
H          7.47781        0.50173        2.27377
H          8.04728       -1.16659        0.36980
H          6.93460       -2.48984        0.01766
H          6.48980       -0.83321       -0.38111
C          1.21984        5.24437       -0.61068
C          2.54356        4.74392       -0.01150
C          3.63740        5.79694       -0.27581
C          2.39622        4.58001        1.51465
H          0.91536        6.18855       -0.15950
H          1.31962        5.39905       -1.68471
H          0.42406        4.51821       -0.45199
H          3.40397        6.73232        0.23274
H          4.60570        5.45310        0.08769
H          3.72512        6.01797       -1.33921
H          3.31070        4.17578        1.94808
H          2.19135        5.53829        1.99164
H          1.58004        3.90639        1.76945
C          5.24960        2.92159       -4.27387
C          5.41967        1.91463       -3.12043
C          5.53972        0.50048       -3.72189
C          6.71378        2.22803       -2.34721
H          6.06967        2.83801       -4.98686
H          4.31853        2.74347       -4.81034
H          5.23337        3.94751       -3.90857
H          5.71807       -0.24345       -2.94582
H          4.63477        0.22497       -4.26239
H          6.37262        0.44805       -4.42292
H          7.58602        2.14655       -2.99554
H          6.69343        3.23767       -1.93823
H          6.84388        1.53455       -1.51660
H         -0.74212       -0.93334       -5.53783
H          1.84635       -0.26021       -4.32950
H         -1.80813       -0.22369       -4.32143
H         -2.10561       -1.85652       -4.91139
H          2.45202        1.33119       -4.77154
H          1.08167        0.64336       -5.64026
