59
-75.80285806
Cl         1.64461        0.91063        2.33374
P          1.72483       -0.02523       -0.80508
P         -1.44658       -0.30088       -0.77342
C          0.72709        0.25072       -2.33405
H          0.42856        1.30204       -2.35672
H          1.36344        0.06849       -3.20565
C         -0.48012       -0.64416       -2.30858
H         -0.18027       -1.69505       -2.29509
H         -1.12991       -0.49748       -3.17685
C          2.69336       -1.60206       -0.95809
H          2.39663       -2.05653       -1.91093
C          3.13372        1.16781       -0.65879
H          3.31762        1.28710        0.41616
C         -2.61576       -1.64760       -0.25978
H         -2.34921       -1.90138        0.77352
C         -2.64906        1.08807       -0.99350
H         -2.85410        1.15654       -2.06890
C          4.16370       -1.13262       -1.00912
H          4.63443       -1.34863       -0.04029
H          4.72979       -1.72245       -1.74546
C          4.28855        0.38606       -1.30498
H          4.26737        0.55628       -2.39066
H          5.25805        0.77906       -0.96140
C         -3.99820       -0.96815       -0.30966
H         -4.49964       -1.25577       -1.24378
H         -4.64125       -1.34913        0.49797
C         -3.89187        0.57956       -0.24411
H         -3.82490        0.89779        0.80563
H         -4.80241        1.05374       -0.64150
C          2.41033       -2.55634        0.19895
H          2.53294       -2.00805        1.14272
H          3.18372       -3.33725        0.21473
C          2.85351        2.52686       -1.28800
H          3.79513        3.08757       -1.36904
H          2.51769        2.37917       -2.32227
C         -2.50691       -2.87982       -1.15121
H         -2.74845       -2.59132       -2.18279
H         -1.46332       -3.21683       -1.18477
C         -2.09747        2.41015       -0.47764
H         -1.83697        2.29688        0.58290
H         -1.15128        2.62442       -0.99059
C          1.03514       -3.19990        0.13485
H          0.24544       -2.44934        0.15289
H          0.85890       -3.87661        0.97408
H          0.91294       -3.77684       -0.78376
C          1.83476        3.33562       -0.50098
H          0.90352        2.78292       -0.38087
H          1.59780        4.28591       -0.98464
H          2.19918        3.55803        0.50380
C         -3.40299       -4.02240       -0.69648
H         -3.30648       -4.90025       -1.33949
H         -4.45427       -3.72918       -0.69901
H         -3.15870       -4.33213        0.32144
C         -3.06063        3.57331       -0.66072
H         -3.99296        3.40594       -0.11856
H         -2.63827        4.51461       -0.30157
H         -3.31931        3.70884       -1.71260
Cl        -1.55615        0.20104        2.33797
Pd         0.13423        0.16064        0.86043
