111
-148.55376146
P         -2.26790        2.43569        0.31568
P         -0.17541        0.07276        0.57096
C         -1.74980        1.86948        1.95434
C         -0.82861        0.85126        2.06097
C         -2.20243        4.28325        0.21157
C         -1.03693        4.74999       -0.63369
C         -2.25101        2.47007        3.09121
H         -2.97352        3.26476        2.99874
C         -1.82094        2.04912        4.33780
H         -2.21205        2.51591        5.22703
C         -0.88528        1.03775        4.44272
H         -0.54376        0.71576        5.41272
C         -0.38381        0.44011        3.30023
H          0.36026       -0.33851        3.36519
Pd        -1.00778        1.27673       -1.23016
Cl        -2.09254        2.45310       -2.80605
Cl         0.34843        0.17057       -2.63750
C         -3.58975        4.64782       -0.34878
C         -4.06298        2.15336       -0.03003
H         -1.11759        4.36567       -1.65158
H         -0.99924        5.84005       -0.69518
H         -0.08567        4.40007       -0.22660
H         -3.51648        4.73205       -1.44179
H         -3.89723        5.64377        0.00455
H         -4.11221        1.75307       -1.05160
C         -4.65464        3.57423        0.01539
C         -4.66981        1.17951        0.95744
H         -2.09986        4.64437        1.24318
H         -5.03819        3.76626        1.02684
H         -5.52845        3.64631       -0.64991
H         -5.72879        1.00857        0.75026
H         -4.15749        0.21466        0.92810
H         -4.59026        1.56016        1.97713
C         -1.23973       -4.35219        0.20809
C         -0.63616       -3.66731       -0.87640
C         -0.36612       -2.31869       -0.72715
C         -0.59287       -1.66923        0.45747
C         -1.08685       -2.35150        1.53893
C         -1.38716       -3.70130        1.45957
O         -1.72691       -5.67479        0.03216
C         -0.29747       -4.35020       -2.21090
H          0.01214       -1.74026       -1.55106
H         -1.24889       -1.80943        2.45267
C         -1.88820       -4.43224        2.71562
C          4.23592        1.01063       -0.00636
C          3.80070       -0.33706       -0.09246
C          2.45514       -0.60443        0.09353
C          1.57659        0.39351        0.42219
C          2.00850        1.68049        0.60999
C          3.34220        2.01616        0.44441
O          5.55083        1.35986       -0.41372
C          4.74846       -1.49652       -0.43603
H          2.06936       -1.59932       -0.03959
H          1.27842        2.42719        0.87291
C          3.78297        3.46352        0.71131
C         -1.49606       -4.22510       -3.16340
C          0.92842       -3.67819       -2.87159
C          0.06512       -5.83144       -2.00115
C         -1.43020       -5.90216        2.72046
C         -1.31543       -3.77908        3.99437
C         -3.42133       -4.35474        2.77226
C         -3.07415       -5.74173       -0.41852
H         -1.28210       -4.69294       -4.12397
H         -2.38168       -4.69982       -2.74785
H         -1.73562       -3.17744       -3.34414
H          1.76895       -3.64146       -2.17971
H          1.24579       -4.23402       -3.75348
H          0.70742       -2.66299       -3.19732
H          0.88900       -5.92797       -1.29478
H         -0.77743       -6.39531       -1.60909
H          0.36587       -6.29783       -2.93898
H         -1.86240       -6.45531        1.89033
H         -0.34587       -5.96639        2.63621
H         -1.72935       -6.40296        3.64089
H         -1.72362       -2.78249        4.15623
H         -1.56236       -4.37164        4.87501
H         -0.22997       -3.70142        3.93733
H         -3.75384       -3.31721        2.79748
H         -3.87252       -4.82558        1.90229
H         -3.80485       -4.85409        3.66167
H         -3.66995       -6.31042        0.29527
H         -3.49073       -4.73920       -0.52359
H         -3.11436       -6.25448       -1.37935
C          5.65492        1.70272       -1.79008
C          6.16902       -1.23105        0.09434
C          4.26291       -2.81002        0.21897
C          4.77801       -1.68960       -1.95992
C          2.91645        4.09912        1.82279
C          5.24326        3.52090        1.19516
C          3.61665        4.28899       -0.57367
H          6.14964       -1.04897        1.16832
H          6.82302       -2.08214       -0.09389
H          6.61531       -0.36219       -0.38269
H          4.99599       -3.60458        0.08163
H          4.11148       -2.67583        1.28968
H          3.32884       -3.15947       -0.21777
H          3.77866       -1.89783       -2.34114
H          5.14271       -0.79730       -2.46301
H          5.42587       -2.52100       -2.23635
H          1.88718        4.24613        1.49960
H          2.90928        3.47235        2.71416
H          3.30521        5.07747        2.10441
H          5.53308        4.54082        1.44664
H          5.37825        2.90150        2.08121
H          5.92920        3.16340        0.43140
H          3.90805        5.32647       -0.41212
H          2.57947        4.27735       -0.90781
H          4.22714        3.88992       -1.38017
H          4.68123        1.62381       -2.27552
H          6.02776        2.72225       -1.88657
H          6.36135        1.03396       -2.28153
