75
-122.81803389
P          1.85348       -0.55093       -0.01734
C          3.19616       -1.24969       -0.99202
C          4.44158       -1.33517       -0.41197
C          5.49534       -1.88356       -1.12085
C          5.29121       -2.35009       -2.40413
C          4.03729       -2.27391       -2.97706
C          2.98613       -1.72540       -2.26579
H          2.00373       -1.65986       -2.70409
H          3.87717       -2.63909       -3.97821
H          6.11120       -2.77660       -2.95854
H          6.47217       -1.94823       -0.67043
H          4.58133       -0.97989        0.59721
C          1.69311       -1.58577        1.44161
C          1.78754       -1.04136        2.70165
C          1.74992       -1.86577        3.81095
C          1.61922       -3.23085        3.64863
C          1.52228       -3.77241        2.38206
C          1.56215       -2.94516        1.27392
H          1.50499       -3.35311        0.27686
H          1.41663       -4.83730        2.25573
H          1.58574       -3.87434        4.51256
H          1.81873       -1.44229        4.79939
H          1.88597        0.02615        2.81141
C          2.22520        1.14857        0.44405
C          3.38670        1.79999        0.10086
C          3.55596        3.14504        0.39878
C          2.51108        3.83005        1.01790
C          1.33576        3.19330        1.34968
C          1.19197        1.82373        1.07568
O          0.00715        1.13751        1.38736
C         -1.18587        1.80727        1.07073
C         -1.34513        3.17727        1.33331
C         -2.52218        3.80047        0.98279
C         -3.55505        3.09974        0.36118
C         -3.37433        1.75157        0.08511
C         -2.21130        1.11299        0.44706
P         -1.82773       -0.59734        0.03497
C         -1.70954       -1.58697        1.53204
C         -1.53605       -0.99214        2.76054
C         -1.53594       -1.76448        3.90701
C         -1.70553       -3.13158        3.81460
C         -1.87101       -3.72685        2.57975
C         -1.87513       -2.94986        1.43513
H         -2.02112       -3.39810        0.46495
H         -1.99979       -4.79418        2.50670
H         -1.70094       -3.73576        4.70707
H         -1.39610       -1.30007        4.86925
H         -1.38754        0.07321        2.81601
C         -3.14988       -1.31837       -0.95158
C         -4.41521       -1.36219       -0.41136
C         -5.45219       -1.92877       -1.13053
C         -5.21154       -2.45632       -2.38341
C         -3.93773       -2.42377       -2.91495
C         -2.90334       -1.85692       -2.19346
H         -1.90512       -1.82873       -2.59885
H         -3.74881       -2.83777       -3.89178
H         -6.01840       -2.89699       -2.94598
H         -6.44452       -1.96017       -0.71155
H         -4.58383       -0.96219        0.57643
Pd        -0.01793       -0.06866       -1.39258
Cl        -1.55238        0.89369       -2.74094
Cl         1.56116        0.97978       -2.63443
H         -4.13837        1.20783       -0.44143
C         -4.79998        3.79645       -0.05831
H         -4.70536        4.17546       -1.07665
H         -5.01919        4.64040        0.59697
H         -5.65666        3.12188       -0.02832
H         -2.63632        4.85145        1.18163
S         -0.01427        4.06457        2.10107
H          2.61371        4.88004        1.22799
C          4.79952        3.85638        0.00050
H          4.15785        1.26863       -0.42832
H          5.00256        4.69725        0.66489
H          5.66194        3.18945        0.03631
H          4.71426        4.24239       -1.01603
