111
-148.55134874
P         -2.60449        2.06231        0.44230
P          0.11032        0.43361        0.54030
C         -1.78395        1.75615        2.03540
C         -0.57988        1.08693        2.06670
C         -3.54346        3.65975        0.50428
C         -3.16227        4.58453       -0.63026
C         -2.36236        2.17783        3.21623
H         -3.31330        2.68402        3.19375
C         -1.72692        1.93440        4.42180
H         -2.17894        2.26410        5.34302
C         -0.51716        1.26735        4.44697
H         -0.02448        1.07511        5.38583
C          0.05664        0.83739        3.26407
H          0.99167        0.29899        3.26432
Pd        -1.02370        1.49935       -1.16340
Cl        -2.43008        2.36794       -2.67690
Cl         0.59929        0.93279       -2.60868
C         -5.01547        3.19770        0.46854
C         -3.98502        0.87791        0.09983
H         -3.42881        4.14326       -1.59123
H         -3.67903        5.54437       -0.55710
H         -2.08715        4.77773       -0.64207
H         -5.62476        3.95463       -0.04656
H         -5.41606        3.14281        1.49146
H         -3.69218        0.29428       -0.78394
C         -5.17062        1.81154       -0.21839
C         -4.21783       -0.03626        1.28299
H         -3.29908        4.12948        1.46641
H         -6.11066        1.32964        0.08768
H         -5.25009        1.95358       -1.30632
H         -4.48727        0.54159        2.16901
H         -5.02642       -0.74540        1.09013
H         -3.31832       -0.60670        1.52396
C         -1.34472       -3.82650       -0.14954
C         -0.72063       -3.10504       -1.19893
C         -0.31603       -1.80635       -0.94711
C         -0.43962       -1.25362        0.29924
C         -0.93958       -1.98362        1.34502
C         -1.37043       -3.28696        1.16237
O         -1.97530       -5.07043       -0.41828
C         -0.50401       -3.69009       -2.60265
H          0.09058       -1.19074       -1.73074
H         -0.99624       -1.51506        2.31149
C         -1.87951       -4.08553        2.37272
C          4.63639        0.64625        0.12805
C          4.01450       -0.57775        0.49138
C          2.63461       -0.60045        0.60501
C          1.89146        0.54071        0.45068
C          2.49677        1.74920        0.22802
C          3.87347        1.84456        0.10147
O          5.99243        0.65685       -0.28825
C          4.77685       -1.88513        0.76481
H          2.11881       -1.52624        0.79692
H          1.87548        2.62387        0.13169
C          4.48404        3.24641       -0.06416
C         -0.29324       -5.21374       -2.54428
C         -1.71624       -3.35337       -3.48409
C          0.76217       -3.08546       -3.25262
C         -1.56290       -5.58415        2.21734
C         -1.18768       -3.61056        3.67079
C         -3.39427       -3.87799        2.52267
C         -3.33940       -4.95565       -0.80360
H         -0.07614       -5.61758       -3.53285
H          0.53953       -5.46051       -1.88651
H         -1.17686       -5.72294       -2.16807
H         -2.63130       -3.77362       -3.07353
H         -1.85101       -2.27432       -3.55671
H         -1.58727       -3.74614       -4.49225
H          0.63298       -2.02913       -3.48323
H          1.62349       -3.18907       -2.59330
H          0.99506       -3.59054       -4.18968
H         -0.49479       -5.73702        2.06636
H         -1.86381       -6.14240        3.10350
H         -2.08501       -6.01331        1.36569
H         -1.44818       -4.25871        4.50725
H         -0.10362       -3.62602        3.56047
H         -1.49123       -2.60067        3.94309
H         -3.62584       -2.82523        2.68086
H         -3.92735       -4.20428        1.63306
H         -3.78257       -4.43891        3.37240
H         -3.47280       -5.36171       -1.80610
H         -3.96155       -5.53089       -0.11809
H         -3.65230       -3.91075       -0.79003
C          6.13903        0.44134       -1.68216
C          4.54754       -2.86209       -0.40072
C          6.28594       -1.65534        0.95673
C          4.24864       -2.52341        2.06886
C          3.86368        4.20275        0.97828
C          6.00495        3.25596        0.16834
C          4.17630        3.77246       -1.47609
H          5.06534       -3.80490       -0.22642
H          3.48696       -3.07985       -0.52331
H          4.91108       -2.44778       -1.33907
H          6.46573       -0.91393        1.73446
H          6.79055       -2.57792        1.24273
H          6.75058       -1.29714        0.04129
H          3.20628       -2.82501        1.97964
H          4.82253       -3.41347        2.32561
H          4.32685       -1.82196        2.89903
H          2.79724        4.34594        0.81292
H          3.99932        3.81225        1.98647
H          4.33348        5.18493        0.93224
H          6.40018        4.27116        0.14123
H          6.24842        2.82156        1.13728
H          6.52419        2.68117       -0.59476
H          4.57302        4.77814       -1.61239
H          3.10181        3.80818       -1.65295
H          4.61550        3.13258       -2.23885
H          5.58023        1.19297       -2.23722
H          7.19446        0.50661       -1.94736
H          5.76091       -0.54372       -1.95024
