87
-129.18652199
P         -1.67837       -0.38321       -0.12989
P          1.57946        0.35093       -0.16787
C         -1.42744        0.92703       -1.35159
C          1.35039       -0.67997       -1.62196
C         -0.46656        0.86071       -2.35855
C         -0.26706        1.98544       -3.18261
C         -1.04823        3.11250       -2.99569
C         -2.00471        3.15596       -2.00559
C         -2.18381        2.06247       -1.18181
C          2.15027       -1.78322       -1.79279
C          1.98386       -2.59621       -2.89638
C          1.01020       -2.29592       -3.82535
C          0.19100       -1.18980       -3.67110
C          0.36665       -0.35638       -2.54835
Cl         1.29191        1.13198        2.93827
Cl        -1.43007       -0.75872        3.03858
H         -2.60203        4.04216       -1.86655
H         -2.91942        2.09774       -0.39558
H          2.91086       -2.00855       -1.06401
H          2.60926       -3.46398       -3.02774
H         -0.89290        3.96715       -3.63216
H          0.87279       -2.93050       -4.68439
C         -0.97573       -4.61189       -1.63778
C         -0.38437       -4.20165       -0.45080
C         -0.63170       -2.91094       -0.00071
C         -1.43372       -2.05874       -0.72443
C         -2.03518       -2.48054       -1.88658
C         -1.80516       -3.76413       -2.34590
H         -0.78047       -5.60529       -2.00414
C          0.53522       -5.09880        0.29990
H         -0.20743       -2.57886        0.93091
H         -2.66265       -1.79817       -2.43776
H         -2.26205       -4.09729       -3.26327
C         -5.77724        0.07289        1.80381
C         -5.55800       -0.92959        0.87990
C         -4.31143       -1.07239        0.30006
C         -3.29521       -0.21180        0.64460
C         -3.51234        0.78766        1.56507
C         -4.75573        0.93974        2.16639
H         -6.74789        0.18744        2.25548
H         -6.35703       -1.60109        0.61137
H         -4.12564       -1.85384       -0.41829
H         -2.70443        1.44676        1.83758
C         -4.98495        2.02880        3.15444
C          5.01311       -1.26836        2.35347
C          5.11076       -0.01120        1.79035
C          4.07615        0.48050        1.01713
C          2.95377       -0.28683        0.81240
C          2.85305       -1.53791        1.37628
C          3.88609       -2.05239        2.14945
H          5.81371       -1.64953        2.96424
H          5.98951        0.58951        1.95877
H          4.13373        1.46478        0.58234
H          1.96371       -2.12390        1.21853
C          3.75659       -3.39357        2.78111
C          2.24586        4.67753       -1.37190
C          3.01062        3.67841       -1.94169
C          2.81869        2.36244       -1.56344
C          1.86792        2.06137       -0.61682
C          1.11155        3.05425       -0.03934
C          1.29106        4.38169       -0.40857
H          2.38374        5.70135       -1.67527
H          3.74948        3.92195       -2.68744
H          3.39307        1.56641       -2.01101
H          0.36937        2.79906        0.69814
C          0.43884        5.44945        0.18084
Pd        -0.05323        0.08366        1.48368
C          0.77165        1.99463       -4.25036
C         -0.85680       -0.91069       -4.69195
H          0.31932        1.86707       -5.23451
H          1.31770        2.93903       -4.25233
H          1.50048        1.19631       -4.10683
H         -0.41107       -0.53376       -5.61328
H         -1.41313       -1.81693       -4.93556
H         -1.57448       -0.17032       -4.33689
H          0.27280       -6.14709        0.15103
H          1.56559       -4.95835       -0.03019
H          0.49434       -4.89532        1.37099
H         -5.19755        2.97210        2.64941
H         -5.82709        1.79885        3.80857
H         -4.10651        2.17416        3.78497
H          3.22243       -4.08453        2.12730
H          4.73475       -3.82722        2.99363
H          3.20601       -3.32597        3.72042
H          0.95743        6.40914        0.18894
H         -0.48248        5.56812       -0.39121
H          0.16725        5.21038        1.21008
