111
-148.55878827
P         -2.37618        2.45044        0.04461
P         -0.07702        0.26424        0.46865
C         -1.71621        2.13174        1.69932
C         -0.75454        1.16160        1.88043
C         -2.36103        4.24991       -0.37338
C         -1.27936        4.55088       -1.38795
C         -2.19156        2.84317        2.78182
H         -2.94009        3.60414        2.63028
C         -1.70681        2.57283        4.05001
H         -2.07800        3.12701        4.89660
C         -0.75222        1.59058        4.23182
H         -0.37679        1.37739        5.21913
C         -0.27525        0.88227        3.14322
H          0.47270        0.11441        3.26723
Pd        -1.27047        1.01028       -1.37306
Cl        -2.66258        1.71714       -2.98373
Cl        -0.17050       -0.53724       -2.57470
C         -3.79565        4.50240       -0.87406
C         -4.18977        2.09747       -0.08714
H         -0.29061        4.28636       -1.00465
H         -1.43942        3.97782       -2.30340
H         -1.26773        5.60962       -1.65776
H         -3.80930        4.40002       -1.96795
H         -4.09572        5.54168       -0.67095
H         -4.31514        1.51458       -1.00933
C         -4.80694        3.49900       -0.25054
C         -4.69969        1.32123        1.10886
H         -2.17897        4.78726        0.56646
H         -5.12347        3.86391        0.73617
H         -5.72657        3.44369       -0.85263
H         -4.58612        1.90049        2.02638
H         -5.75895        1.07522        1.00423
H         -4.14515        0.39020        1.24304
C         -1.03881       -4.18160        0.62734
C          0.24730       -3.73292        1.02391
C          0.51946       -2.37644        0.95636
C         -0.44949       -1.48058        0.58778
C         -1.72514       -1.89739        0.31076
C         -2.06210       -3.24028        0.34770
O         -1.29050       -5.57242        0.48479
C          1.34665       -4.69761        1.49674
H          1.50165       -1.99886        1.18130
H         -2.45679       -1.15458        0.04344
C         -3.50904       -3.65281        0.03485
C          4.38036        1.08575       -0.08011
C          3.73080        0.10974       -0.88076
C          2.37051       -0.07947       -0.70578
C          1.67718        0.58296        0.27247
C          2.32549        1.43999        1.12415
C          3.68353        1.68406        1.00291
O          5.68997        1.51891       -0.41141
C          4.44523       -0.76681       -1.92313
H          1.82456       -0.73647       -1.36018
H          1.75346        1.93118        1.89160
C          4.35137        2.57826        2.06159
C          2.13468       -5.21285        0.28317
C          2.33106       -3.98225        2.44988
C          0.74200       -5.87879        2.27729
C         -3.65214       -3.88188       -1.47780
C         -3.90617       -4.92263        0.80895
C         -4.49886       -2.54262        0.45557
C         -1.02310       -6.08303       -0.81536
H          2.93984       -5.87805        0.59417
H          1.49342       -5.76120       -0.40171
H          2.57555       -4.38411       -0.26893
H          1.79707       -3.49603        3.26593
H          3.03242       -4.69320        2.88608
H          2.92184       -3.23040        1.92839
H          1.52247       -6.53267        2.66557
H          0.15024       -5.51987        3.11871
H          0.09280       -6.48037        1.64575
H         -3.40514       -2.97448       -2.02864
H         -2.98548       -4.66778       -1.82365
H         -4.67185       -4.16671       -1.73544
H         -3.30415       -5.77641        0.50904
H         -3.76858       -4.77732        1.87988
H         -4.95066       -5.17841        0.63261
H         -4.40038       -1.65799       -0.17180
H         -5.52871       -2.88620        0.36093
H         -4.33739       -2.25175        1.49323
H         -0.61814       -5.29876       -1.45627
H         -0.30861       -6.90302       -0.74465
H         -1.94173       -6.47267       -1.25331
C          5.69516        2.59556       -1.33425
C          4.02022       -2.23861       -1.72583
C          4.04345       -0.31104       -3.33573
C          5.97643       -0.71931       -1.78240
C          3.95390        4.04324        1.81712
C          3.87487        2.15432        3.46906
C          5.88480        2.45182        2.05074
H          4.23229       -2.56408       -0.70782
H          2.95706       -2.38121       -1.91194
H          4.56022       -2.89455       -2.40810
H          4.51729       -0.93259       -4.09495
H          2.96473       -0.37643       -3.47433
H          4.33884        0.72110       -3.51453
H          6.45543       -1.42280       -2.46303
H          6.36296        0.27152       -2.00843
H          6.27676       -0.97106       -0.76588
H          4.28807        4.38380        0.83903
H          2.87193        4.16512        1.85943
H          4.39508        4.69710        2.56896
H          4.39836        2.71676        4.24179
H          2.80951        2.33079        3.60736
H          4.06624        1.09478        3.63674
H          6.18514        1.40976        2.15460
H          6.33164        3.01801        2.86764
H          6.30512        2.82885        1.12142
H          5.16998        2.31047       -2.24451
H          5.19917        3.46219       -0.90052
H          6.72552        2.85527       -1.57805
