100
-131.98220172
C         -1.63848        3.76831       -1.45990
C         -2.36426        2.49500       -1.47310
C         -0.24701        3.48530       -1.50973
C         -0.04290        2.01395       -1.59220
C          1.12810        1.42986       -2.30535
C         -1.42069        1.41885       -1.56850
C         -1.82701        0.01344       -1.98291
C         -0.85788       -0.71045       -2.89368
Cl         1.02006       -0.50725        2.74467
Cl        -1.89089       -1.73297        2.27722
C          3.23813        0.40817       -3.83717
C          2.49154        1.46608       -4.31746
C          2.94847       -0.12915       -2.59131
C          1.46252        1.97347       -3.56476
C          1.90642        0.35182       -1.83412
H         -3.44800        2.39053       -1.54061
H          0.54695        4.23024       -1.59933
H          0.04647       -0.98343       -2.35072
H         -1.28701       -1.63336       -3.29111
H         -0.56770       -0.08746       -3.74318
H          4.05438        0.01316       -4.41962
H          2.71855        1.89300       -5.28095
H          3.57262       -0.91858       -2.20700
H          0.87436        2.79257       -3.94138
H         -2.09151        4.76258       -1.45761
P          1.77581       -0.30179       -0.15084
H         -2.79241        0.09389       -2.49842
P         -2.17926       -1.00610       -0.49235
H         -3.48491       -3.02168       -0.32555
C         -1.67425       -3.74533       -1.22065
C         -2.74787       -2.67242       -1.04947
C         -1.22835       -4.30282        0.13336
H         -3.23622        0.79187        0.63466
C         -4.91594       -0.03086       -0.42471
C         -3.60560       -0.19386        0.36089
H         -4.65815        0.27520       -1.45322
C         -5.72481       -1.32815       -0.50270
H          3.61804       -1.82945       -0.40641
H          2.58020        0.78428        1.86250
C          3.54451        3.28040        1.17822
C          2.70811        2.30132        0.33475
C          2.88926        0.85491        0.81444
C          4.37608        0.47101        0.73007
C          5.24960        1.43815        1.55633
C          5.03578        2.90016        1.11912
H          3.20037        3.24770        2.21938
H          3.38725        4.31643        0.84694
H          3.03269        2.36459       -0.71124
H          1.64788        2.57510        0.32200
H          4.53305       -0.56256        1.06185
H          4.68804        0.49617       -0.32074
H          4.99394        1.33687        2.61847
H          6.31068        1.16117        1.48315
H          5.40323        3.02986        0.09333
H          5.63706        3.58388        1.73501
C          2.67114       -4.31123       -1.07851
C          1.92152       -2.96369       -1.05225
C          2.58291       -1.98310       -0.08109
C          2.62251       -2.58913        1.32941
C          3.39646       -3.92142        1.33144
C          2.77334       -4.91915        0.33534
H          3.67955       -4.15665       -1.48180
H          2.18259       -5.01202       -1.76998
H          0.89577       -3.12492       -0.71304
H          1.83931       -2.52898       -2.05735
H          3.04282       -1.87666        2.05101
H          1.59559       -2.76885        1.66785
H          4.44138       -3.73450        1.05444
H          3.43238       -4.34861        2.34338
H          1.77356       -5.20235        0.68557
H          3.34939       -5.85511        0.31341
H         -0.81376       -3.27123       -1.72101
C         -2.17276       -4.87837       -2.12309
H         -3.79559       -0.72698        1.29220
C         -5.76974        1.08091        0.19587
H         -3.27387       -2.51091       -1.99230
H         -0.84450       -3.52375        0.79079
H         -0.45464       -5.06246        0.01725
H         -2.06736       -4.77158        0.64822
H         -1.40556       -5.64083       -2.26734
H         -3.04263       -5.36577       -1.68166
H         -2.46664       -4.50871       -3.10687
H         -5.22461       -2.09607       -1.08963
H         -5.90334       -1.73202        0.49433
H         -6.69888       -1.15749       -0.96423
H         -6.02926        0.83431        1.22586
H         -5.24220        2.03551        0.20930
H         -6.70154        1.22447       -0.35337
Fe        -1.05519        2.60469        0.14783
C         -2.45338        3.02719        1.65370
C         -1.59891        4.16546        1.37316
C         -0.21910        3.77798        1.60179
C         -0.21759        2.38241        1.99240
C         -1.58923        1.91690        2.00193
H         -3.54474        3.01890        1.62951
H         -1.94230        5.16917        1.11142
H          0.65213        4.43417        1.53620
H          0.64359        1.79219        2.30577
H         -1.90581        0.92155        2.32302
Pd        -0.29022       -0.84447        0.93255
