111
-148.55428675
P         -2.60260        1.89499        1.05691
P          0.18586        0.52013        0.44449
C         -1.43841        1.56622        2.41099
C         -0.20563        1.01726        2.13194
C         -3.65544        3.36966        1.44112
C         -3.60466        4.39292        0.32847
C         -1.78203        1.85080        3.71758
H         -2.75366        2.26210        3.93629
C         -0.88463        1.59175        4.73928
H         -1.15320        1.81417        5.75912
C          0.35232        1.04600        4.45472
H          1.04939        0.84088        5.25046
C          0.69091        0.75290        3.14611
H          1.64441        0.30858        2.90744
Pd        -1.33513        1.69409       -0.86486
Cl        -3.01965        2.47899       -2.10923
Cl         0.06474        1.27188       -2.57532
C         -5.05193        2.74837        1.65515
C         -3.90319        0.59147        0.87560
H         -4.00391        3.97374       -0.59602
H         -4.19748        5.27845        0.56962
H         -2.57967        4.71444        0.12959
H         -5.82455        3.46712        1.34519
H         -5.22397        2.57370        2.72744
H         -3.74064        0.11209       -0.09976
C         -5.21219        1.40729        0.88433
C         -3.80345       -0.42772        1.98921
H         -3.26677        3.80535        2.37116
H         -6.01973        0.80219        1.32175
H         -5.52555        1.61851       -0.14878
H         -4.56468       -1.20551        1.89224
H         -2.82494       -0.91190        1.99319
H         -3.93758        0.04982        2.96165
C         -1.26292       -3.75339       -0.19643
C         -0.95348       -3.30519        1.11329
C         -0.50050       -2.00652        1.27267
C         -0.40705       -1.15449        0.20397
C         -0.78583       -1.55697       -1.04822
C         -1.26743       -2.83355       -1.27603
O         -1.53046       -5.12834       -0.43123
C         -1.06531       -4.21670        2.34536
H         -0.20451       -1.64201        2.24042
H         -0.68435       -0.85308       -1.85529
C         -1.76862       -3.19572       -2.68252
C          4.62847        0.62718       -0.54055
C          4.05330       -0.53340        0.03717
C          2.69545       -0.52455        0.30780
C          1.93775        0.59759        0.09574
C          2.50887        1.75621       -0.35946
C          3.86089        1.81479       -0.65676
O          5.95939        0.58857       -1.03510
C          4.86326       -1.80437        0.33775
H          2.20243       -1.40782        0.67598
H          1.87399        2.61366       -0.50149
C          4.46103        3.14314       -1.14339
C         -1.34492       -3.38940        3.62093
C         -2.23027       -5.21127        2.19228
C          0.25786       -4.97368        2.53628
C         -2.37272       -1.95300       -3.37767
C         -0.59122       -3.70720       -3.52595
C         -2.88124       -4.25764       -2.62033
C         -0.38091       -5.89026       -0.77850
H         -0.49781       -2.75935        3.88805
H         -2.21925       -2.75327        3.48854
H         -1.53586       -4.04403        4.47100
H         -3.16528       -4.68180        2.01197
H         -2.06531       -5.89015        1.35926
H         -2.35028       -5.81574        3.09100
H          0.21403       -5.62249        3.41068
H          0.48727       -5.59113        1.67130
H          1.08396       -4.27633        2.67417
H         -1.61226       -1.20927       -3.61041
H         -2.84789       -2.22850       -4.31874
H         -3.12709       -1.48391       -2.74650
H         -0.14394       -4.59371       -3.08258
H         -0.91501       -3.96156       -4.53482
H          0.18598       -2.94709       -3.60228
H         -3.27936       -4.46678       -3.61290
H         -2.51407       -5.19453       -2.20928
H         -3.70206       -3.91608       -1.99054
H          0.51040       -5.26155       -0.76720
H         -0.25793       -6.70832       -0.06886
H         -0.51073       -6.31883       -1.77204
C          6.06072        0.18269       -2.39441
C          6.31604       -1.46090        0.71327
C          4.25601       -2.56670        1.53826
C          4.83532       -2.72715       -0.89023
C          3.70158        4.34253       -0.53207
C          5.93293        3.28020       -0.71350
C          4.34475        3.21959       -2.67344
H          6.87275       -2.35710        0.98600
H          6.83908       -0.98824       -0.11420
H          6.34145       -0.77504        1.55940
H          4.89975       -3.39380        1.83682
H          4.13885       -1.90686        2.39756
H          3.28292       -2.99174        1.29636
H          5.27308       -2.24161       -1.75898
H          5.39151       -3.64506       -0.70167
H          3.81089       -2.99903       -1.14409
H          3.65225        4.25771        0.55320
H          4.20245        5.28018       -0.77200
H          2.68600        4.41593       -0.91806
H          6.02736        3.18335        0.36754
H          6.55391        2.51486       -1.17201
H          6.33735        4.24949       -1.00403
H          4.74737        4.15963       -3.04968
H          3.30239        3.14958       -2.98367
H          4.88611        2.40678       -3.15127
H          6.53761        0.97068       -2.97702
H          6.67854       -0.71242       -2.46415
H          5.07126       -0.02466       -2.80398
