111
-148.55255499
P         -1.60053        2.77023        0.07674
P         -0.63876       -0.21306        0.47063
C         -1.53373        2.05832        1.74658
C         -1.21271        0.72562        1.90809
C         -0.34822        4.10552       -0.15575
C          0.51823        3.80901       -1.36080
C         -1.78294        2.84470        2.85355
H         -1.97217        3.89742        2.72702
C         -1.75307        2.28634        4.11928
H         -1.95295        2.89997        4.98255
C         -1.46445        0.94505        4.27701
H         -1.44079        0.50911        5.26226
C         -1.18231        0.16662        3.16961
H         -0.92751       -0.87366        3.28505
Pd        -1.53596        0.93751       -1.33419
Cl        -2.26639        2.30031       -2.96475
Cl        -1.42084       -0.87187       -2.65234
C         -1.21893        5.37024       -0.30669
C         -3.16170        3.69168       -0.32500
H         -0.09384        3.72026       -2.26057
H          1.25004        4.60167       -1.53347
H          1.06068        2.86885       -1.24001
H         -0.70568        6.09342       -0.95743
H         -1.32351        5.87022        0.66759
H         -3.65312        3.11532       -1.12076
C         -2.63111        5.03587       -0.86686
C         -4.09870        3.83304        0.85603
H          0.25637        4.14204        0.76025
H         -3.34432        5.83728       -0.62487
H         -2.58562        5.00206       -1.96540
H         -3.66450        4.47490        1.62278
H         -5.04821        4.28482        0.55980
H         -4.31397        2.86382        1.31120
C         -0.48153       -4.71417        1.17637
C         -1.23516       -4.20237        0.08650
C         -1.29383       -2.82906       -0.08036
C         -0.58293       -1.98419        0.73142
C          0.26488       -2.48368        1.68676
C          0.36556       -3.84617        1.91498
O         -0.62722       -6.06971        1.56837
C         -1.95175       -5.08593       -0.94935
H         -1.87240       -2.40104       -0.87983
H          0.86493       -1.79103        2.25282
C          1.40118       -4.33117        2.94347
C          3.48458        1.39119       -0.61015
C          2.80423        0.52473       -1.50627
C          1.55867        0.04890       -1.13583
C          1.02026        0.34844        0.08729
C          1.72038        1.09019        1.00113
C          2.97767        1.58723        0.70265
O          4.61701        2.12241       -1.05221
C          3.34892        0.10090       -2.87949
H          0.96179       -0.52402       -1.82546
H          1.26733        1.29264        1.95632
C          3.74438        2.30761        1.82416
C         -3.47147       -4.99288       -0.73768
C         -1.60631       -4.59037       -2.37163
C         -1.51153       -6.55800       -0.86811
C          2.74144       -3.59773        2.71182
C          0.89583       -4.02004        4.36178
C          1.68588       -5.83800        2.81833
C         -1.68300       -6.26217        2.49454
H         -3.81516       -3.96320       -0.83108
H         -4.00461       -5.59270       -1.47481
H         -3.75265       -5.34906        0.25169
H         -2.03497       -5.24796       -3.12734
H         -1.99163       -3.58953       -2.55787
H         -0.52696       -4.56733       -2.51886
H         -0.42798       -6.63980       -0.94634
H         -1.81249       -7.00774        0.07514
H         -1.95624       -7.14626       -1.67044
H          3.51633       -3.98763        3.37138
H          3.07828       -3.72802        1.68376
H          2.65923       -2.52977        2.90683
H         -0.04107       -4.53460        4.56669
H          1.62194       -4.33341        5.11146
H          0.72293       -2.95165        4.48789
H          2.48762       -6.14381        3.49007
H          0.80596       -6.42675        3.06702
H          1.97984       -6.09023        1.80009
H         -1.75541       -7.32139        2.74218
H         -1.49122       -5.69260        3.40251
H         -2.62480       -5.92776        2.06211
C          4.27861        3.38661       -1.59905
C          4.85555        0.37590       -3.02277
C          3.14684       -1.41959       -3.06506
C          2.57928        0.84780       -3.98219
C          3.09263        3.67434        2.09284
C          3.68184        1.45596        3.11172
C          5.23273        2.50316        1.48742
H          5.23905       -0.01821       -3.96360
H          5.06540        1.44261       -3.00365
H          5.40991       -0.08825       -2.20785
H          3.59412       -1.75965       -3.99869
H          3.61157       -1.97155       -2.24859
H          2.09207       -1.68757       -3.09546
H          2.70818        1.92461       -3.89247
H          2.92689        0.54900       -4.97065
H          1.51191        0.63632       -3.92394
H          3.10905        4.30044        1.20269
H          2.05337        3.55669        2.39801
H          3.61593        4.20563        2.88734
H          4.27616        1.90767        3.90557
H          2.66345        1.35870        3.48432
H          4.07037        0.45443        2.92890
H          5.36214        3.18122        0.64746
H          5.69478        1.55259        1.22323
H          5.77553        2.92170        2.33463
H          3.77361        3.99558       -0.85118
H          5.18833        3.89369       -1.92110
H          3.61655        3.25988       -2.45390
