115
-277.93466508
P         -1.75510       -0.19423       -0.03990
P          1.81839       -0.92080        0.43931
C         -1.56410        1.56713       -0.40902
C         -2.67460        2.37176       -0.27778
H         -3.64388        1.92814       -0.10881
C         -2.52535        3.74257       -0.25261
H         -3.36422        4.37754       -0.01743
C         -1.26954        4.31215       -0.38964
C         -0.18583        3.49907       -0.67969
H          0.78375        3.96096       -0.81045
C         -0.33388        2.12675       -0.68662
H          0.52651        1.49943       -0.84586
C         -3.24709       -0.83137       -0.82062
C         -3.81140       -1.97842       -0.31272
H         -3.35880       -2.46604        0.53534
C         -4.96185       -2.48882       -0.87905
H         -5.43350       -3.37444       -0.48368
C         -5.54479       -1.85830       -1.96019
C         -4.96827       -0.70757       -2.46500
H         -5.43535       -0.21573       -3.30328
C         -3.81999       -0.19573       -1.89751
H         -3.36085        0.69105       -2.30421
C         -1.72006       -0.69210        1.71842
C         -1.11196       -1.92198        1.90380
H         -0.68789       -2.43419        1.05597
C         -0.88181       -2.43603        3.18046
C         -1.49694       -1.79687        4.25061
H         -1.36824       -2.19138        5.24468
C         -2.12264       -0.57927        4.07329
H         -2.48169       -0.04041        4.93361
C         -2.14157        0.04952        2.82878
C          1.38541       -0.39238        2.13717
C          0.73755        0.82628        2.13180
H          0.50651        1.29006        1.19130
C          0.21860        1.38822        3.29559
C          0.56424        0.79790        4.50488
H          0.21029        1.23168        5.42511
C          1.21256       -0.42077        4.52454
H          1.35932       -0.92445        5.46503
C          1.52654       -1.09374        3.34345
C         -2.28627        1.55388        2.81310
H         -3.10387        1.84223        3.48300
H         -2.62265        1.86062        1.82571
C         -0.96472        2.31485        3.20440
H         -0.74163        3.11323        2.48837
H         -1.08666        2.83127        4.16284
C          0.28481       -3.35874        3.42731
H          0.28748       -4.15985        2.68072
H          0.13647       -3.87463        4.38253
C          1.66038       -2.59750        3.42776
H          2.24182       -2.85799        4.32021
H          2.28162       -2.95420        2.61070
C          2.76551       -2.44191        0.53792
C          2.14039       -3.64396        0.28192
C          4.00398       -2.40811        1.14460
C          2.70795       -4.81726        0.73454
C          4.56016       -3.58252        1.61543
C          3.88188       -4.78459        1.46932
C          2.81007        0.35151       -0.36275
C          2.98905        0.32185       -1.72657
C          3.24968        1.43014        0.37098
C          3.54863        1.40348       -2.37216
H          2.64441       -0.52762       -2.29206
C          3.81073        2.51227       -0.27307
H          3.10860        1.44979        1.43940
C          3.93571        2.51665       -1.65090
H          3.63085        1.42992       -3.44753
H          4.08984        3.39677        0.27740
Pd         0.08202       -1.15728       -1.13016
Cl        -1.29029       -1.19157       -2.91352
Cl         1.57671       -2.37735       -2.29468
H          5.46092       -3.55969        2.20709
H          4.47393       -1.45883        1.35060
H          2.18401       -5.75626        0.64500
H          1.17275       -3.66054       -0.19312
C         -2.20915        6.65814       -0.15186
C         -1.00862        5.70664        0.12479
C         -0.71013        5.54398        1.64817
F         -1.85657        7.91292        0.16922
F         -2.49950        6.57973       -1.45917
F         -3.27026        6.27209        0.57002
F          0.07283        6.22843       -0.45908
F         -1.73437        4.90361        2.22775
F          0.38940        4.78606        1.76470
F         -0.51668        6.74637        2.20691
C         -8.01119       -1.57738       -1.86829
C         -6.84670       -2.38675       -2.50747
C         -6.85821       -2.31793       -4.06323
F         -9.18099       -2.00450       -2.36661
F         -7.96533       -1.78851       -0.54427
F         -7.83351       -0.27285       -2.12441
F         -7.00172       -3.66712       -2.15901
F         -5.74102       -2.91609       -4.50327
F         -7.94023       -2.96380       -4.52485
F         -6.87246       -1.03683       -4.45700
C          2.94036        4.64325       -2.37079
C          4.24524        3.79317       -2.38714
C          5.45766        4.53003       -1.74767
F          1.97913        3.91069       -2.95209
F          2.59312        4.88551       -1.09962
F          3.13579        5.78626       -3.04431
F          4.55034        3.53101       -3.66078
F          6.48319        3.66585       -1.71176
F          5.77484        5.59242       -2.50409
F          5.14755        4.91641       -0.50225
C          5.66750       -6.05760        2.74686
C          4.15793       -5.95236        2.38408
C          3.24531       -5.74060        3.63527
F          6.03264       -4.99601        3.47859
F          5.87624       -7.19310        3.43102
F          6.36091       -6.07535        1.59893
F          3.79333       -7.09427        1.79596
F          3.51582       -4.54725        4.18003
F          1.97345       -5.74388        3.21163
F          3.44881       -6.72789        4.51750
