59
-75.79786878
Cl         1.57623        0.45981        2.37598
P          1.52653        0.08394       -0.77777
P         -1.62145       -0.09722       -0.80749
C          0.58524        0.34524       -2.34517
H          0.30563        1.39846       -2.41601
H          1.23859        0.11733       -3.19322
C         -0.63872       -0.52492       -2.31407
H         -0.36163       -1.58026       -2.27043
H         -1.27084       -0.38949       -3.19747
C          2.43718       -1.52420       -0.88804
H          2.02458       -2.07981       -1.73924
C          2.95480        1.24102       -0.50957
H          2.79864        1.70127        0.47443
C         -2.88514       -1.36785       -0.32029
H         -2.74395       -1.53896        0.75471
C         -2.74576        1.31007       -1.23622
H         -2.36076        1.77300       -2.15347
C          3.88275       -1.06598       -1.16032
H          4.59319       -1.83065       -0.81537
H          4.04655       -0.97618       -2.24465
C          4.17822        0.29863       -0.48097
H          5.03516        0.79044       -0.96322
H          4.48985        0.12474        0.55948
C         -4.23509       -0.66365       -0.58164
H         -4.94214       -1.37794       -1.02709
H         -4.68942       -0.36295        0.37381
C         -4.08245        0.58547       -1.49113
H         -4.91950        1.28275       -1.33716
H         -4.14217        0.27761       -2.54593
C          2.27158       -2.33018        0.39673
H          1.20531       -2.38642        0.65306
H          2.73294       -1.77307        1.22310
C          3.04382        2.33583       -1.57064
H          4.05409        2.76823       -1.55792
H          2.94091        1.87729       -2.56252
C         -2.71227       -2.68833       -1.06464
H         -3.62512       -3.28935       -0.94955
H         -2.63834       -2.48194       -2.14017
C         -2.81978        2.34552       -0.11820
H         -3.68764        2.99781       -0.28883
H         -3.03085        1.82631        0.82574
C          2.85134       -3.73486        0.31125
H          2.69194       -4.29856        1.23332
H          3.92595       -3.71687        0.12398
H          2.39221       -4.30045       -0.50185
C          2.01877        3.44299       -1.37527
H          1.00214        3.05242       -1.37235
H          2.07728        4.20017       -2.16049
H          2.16419        3.94983       -0.41927
C         -1.51174       -3.48959       -0.58126
H         -1.38054       -4.41506       -1.14649
H         -1.61710       -3.76006        0.47121
H         -0.58736       -2.91910       -0.66744
C         -1.56210        3.19091        0.00984
H         -0.68568        2.57489        0.21013
H         -1.36412        3.74422       -0.91006
H         -1.63894        3.91843        0.82097
Cl        -1.75433        0.28713        2.36305
Pd        -0.06757        0.06226        0.90407
