171
-217.84466045
P         -1.61899        0.38594       -0.30090
P          1.62842       -0.39857       -0.37980
C         -0.91545        1.35858       -1.63312
C          0.86390       -1.35539       -1.68876
C         -0.13833        0.74700       -2.61010
C          0.46848        1.55357       -3.59120
C          0.24847        2.92137       -3.57663
C         -0.54526        3.50425       -2.61143
C         -1.12141        2.71647       -1.63478
C          1.05951       -2.71459       -1.70771
C          0.43190       -3.49181       -2.66095
C         -0.40220       -2.89697       -3.58408
C         -0.61101       -1.52760       -3.58235
C          0.04599       -0.73169       -2.62417
Cl         1.65460        0.45223        2.79951
Cl        -1.45963       -0.41607        2.92156
C         -1.53058       -0.93006       -4.58925
C          1.31969        0.95543       -4.65506
H         -0.71375        4.56873       -2.61610
H         -1.73740        3.16265       -0.87105
H          1.70468       -3.17008       -0.97391
H          0.58946       -4.55784       -2.67810
H          0.70776        3.53247       -4.33524
H         -0.90706       -3.49993       -4.31996
C         -3.96112       -3.22350       -1.68163
C         -2.93355       -3.40510       -0.76488
C         -2.21869       -2.28454       -0.36029
C         -2.51355       -1.05028       -0.88269
C         -3.52107       -0.88883       -1.80216
C         -4.27416       -1.98104       -2.21787
H         -4.54992       -4.07410       -1.97146
H         -1.43447       -2.36032        0.37283
H         -3.72118        0.10003       -2.17871
C         -4.31356        2.82981        2.41441
C         -4.86829        1.80142        1.66303
C         -4.02456        1.07839        0.82994
C         -2.69095        1.39164        0.74110
C         -2.16259        2.41869        1.48351
C         -2.96270        3.15028        2.35084
H         -4.95526        3.38415        3.07295
H         -4.40049        0.25294        0.25271
H         -1.11176        2.63859        1.40023
C          4.31010       -2.83237        2.36073
C          2.95959       -3.15263        2.28714
C          2.16698       -2.43122        1.40392
C          2.70232       -1.41580        0.65060
C          4.03594       -1.10523        0.74729
C          4.86972       -1.80748        1.60708
H          4.93936       -3.38878        3.02800
H          1.11544       -2.64684        1.31907
H          4.42820       -0.29608        0.15701
C          3.96684        3.21327       -1.76799
C          2.92796        3.39092       -0.86278
C          2.21642        2.26749       -0.46119
C          2.52283        1.03250       -0.97506
C          3.54175        0.87493       -1.88251
C          4.30066        1.96702       -2.28568
H          4.53783        4.07378       -2.06133
H          1.42241        2.34326        0.26140
H          3.75695       -0.11041       -2.26154
Pd         0.04013        0.02618        1.29669
C         -1.38104       -4.80771        0.67263
C         -2.65132       -4.80224       -0.19761
C         -2.44812       -5.79940       -1.35423
C         -3.84482       -5.24422        0.66704
H         -1.16268       -5.81274        1.03331
H         -0.52068       -4.46267        0.10010
H         -1.49910       -4.16455        1.54413
H         -2.19885       -6.79025       -0.97490
H         -3.34677       -5.89481       -1.96210
H         -1.63723       -5.47374       -2.00467
H         -3.67222       -6.23106        1.09613
H         -4.00693       -4.54287        1.48540
H         -4.76103       -5.28911        0.07909
C         -5.30672       -2.82688       -4.35415
C         -5.46317       -1.84174       -3.17964
C         -5.56493       -0.41418       -3.75146
C         -6.76181       -2.15847       -2.41585
H         -5.29495       -3.85997       -4.00953
H         -6.13142       -2.72402       -5.05925
H         -4.37945       -2.64484       -4.89526
H         -6.39469       -0.33725       -4.45395
H         -5.73718        0.31521       -2.96028
H         -4.65446       -0.13842       -4.28285
H         -6.75041       -3.17551       -2.02521
H         -6.88923       -1.47943       -1.57359
H         -7.63149       -2.05833       -3.06502
C         -6.78163        0.34950        0.82357
C         -6.36264        1.47392        1.79150
C         -7.19299        2.72875        1.46326
C         -6.65607        1.01637        3.23146
H         -6.58240        0.63133       -0.21018
H         -6.24763       -0.57568        1.03983
H         -7.84791        0.14103        0.91004
H         -8.26031        2.51559        1.52032
H         -6.97933        3.54035        2.15760
H         -6.97295        3.08259        0.45618
H         -6.41823        1.79939        3.95060
H         -7.70798        0.75847        3.35292
H         -6.06098        0.13898        3.48415
C         -1.95746        5.43740        2.25852
C         -2.33735        4.27367        3.18939
C         -1.07764        3.74307        3.90378
C         -3.31351        4.79448        4.26206
H         -2.84130        5.83965        1.76375
H         -1.48226        6.24548        2.81434
H         -1.26644        5.10743        1.48482
H         -0.30947        3.44123        3.19367
H         -0.64530        4.50624        4.55047
H         -1.32101        2.87684        4.51859
H         -2.83731        5.55426        4.88171
H         -4.19391        5.24866        3.80814
H         -3.63918        3.98708        4.91775
C          1.06001       -3.71794        3.83228
C          2.32579       -4.26164        3.13873
C          3.29022       -4.76469        4.23056
C          1.95573       -5.44131        2.22438
H          1.29926       -2.84355        4.43709
H          0.30016       -3.42384        3.11038
H          0.61895       -4.47059        4.48534
H          2.80634       -5.51263        4.85861
H          4.17447       -5.22853        3.79424
H          3.61030       -3.94628        4.87524
H          2.84561       -5.85620        1.75134
H          1.46846       -6.23687        2.78779
H          1.27907       -5.12343        1.43335
C          7.03644       -1.81217        0.35762
C          6.35788       -1.43723        1.68620
C          7.07085       -2.18018        2.83271
C          6.49976        0.07804        1.93252
H          8.09425       -1.55014        0.36979
H          6.95437       -2.88285        0.17142
H          6.57036       -1.29281       -0.47804
H          7.05658       -3.25815        2.67368
H          8.11472       -1.87412        2.90126
H          6.59831       -1.96473        3.79090
H          7.54722        0.35857        2.04160
H          6.08827        0.65871        1.10807
H          5.97505        0.36987        2.84200
C          1.37185        4.78033        0.58775
C          2.62937        4.78763       -0.30185
C          2.39461        5.77151       -1.46346
C          3.82668        5.25643        0.54363
H          0.50518        4.42824        0.02941
H          1.50872        4.13801        1.45729
H          1.14968        5.78322        0.95199
H          2.13658        6.76194       -1.08891
H          3.28283        5.87391       -2.08540
H          1.57918        5.42852       -2.09908
H          4.73398        5.31497       -0.05671
H          3.64193        6.24246        0.96954
H          4.01258        4.56304        1.36372
C          4.97609        1.26119       -4.60029
C          5.48828        1.76086       -3.23876
C          6.44722        0.71734       -2.63566
C          6.27460        3.06739       -3.46189
H          4.32074        2.00081       -5.05863
H          5.80431        1.07871       -5.28484
H          4.41884        0.33104       -4.49498
H          7.32535        0.58269       -3.26697
H          6.78610        1.03133       -1.64856
H          5.96149       -0.25213       -2.53429
H          5.64804        3.82945       -3.92494
H          6.65883        3.45895       -2.52009
H          7.12599        2.89808       -4.12106
H         -2.46961       -1.48184       -4.62693
H          1.82914        0.06022       -4.29558
H         -1.08778       -0.95493       -5.58593
H         -1.76957        0.10693       -4.35009
H          2.08119        1.66138       -4.98696
H          0.72182        0.67883       -5.52424
