87
-129.18576037
P         -1.55157       -0.30448       -0.37224
P          1.70705        0.38842        0.09879
C         -1.19047        0.93137       -1.62501
C          1.56636       -0.71817       -1.32737
C         -0.11995        0.73680       -2.48872
C          0.15300        1.71765       -3.46322
C         -0.65871        2.83752       -3.53896
C         -1.71832        3.00927       -2.67331
C         -1.98134        2.05049       -1.71510
C          2.30471       -1.87581       -1.25233
C          2.20004       -2.84214       -2.23311
C          1.33425       -2.65055       -3.28687
C          0.57157       -1.49968       -3.38183
C          0.69743       -0.50202       -2.39569
Cl         1.15676        0.11474        3.24089
Cl        -1.56151       -1.59916        2.55780
H         -2.33668        3.88926       -2.74131
H         -2.81101        2.17315       -1.03903
H          2.96549       -2.02995       -0.41536
H          2.78292       -3.74620       -2.16697
H         -0.44734        3.58486       -4.28483
H          1.23607       -3.40656       -4.04744
C         -2.23880       -4.34256       -2.33052
C         -1.34723       -4.24697       -1.27076
C         -1.16134       -3.00748       -0.67091
C         -1.85104       -1.90536       -1.11931
C         -2.73915       -2.00886       -2.16394
C         -2.93636       -3.23504       -2.77164
H         -2.38030       -5.29548       -2.81133
C         -0.56549       -5.42882       -0.81693
H         -0.46559       -2.90627        0.14489
H         -3.26030       -1.12876       -2.50706
H         -3.62633       -3.32322       -3.59476
C         -5.14228        1.03123        2.09537
C         -5.21388       -0.13511        1.35938
C         -4.12958       -0.54290        0.60570
C         -2.98575        0.21977        0.58892
C         -2.91113        1.37955        1.32513
C         -3.98740        1.80127        2.09525
H         -5.98661        1.35151        2.68170
H         -6.11264       -0.72960        1.37513
H         -4.16752       -1.45705        0.03643
H         -2.01008        1.96795        1.30135
C         -3.90315        3.06638        2.87444
C          5.70274       -0.24826        2.18912
C          5.50725        0.86429        1.39497
C          4.29206        1.05677        0.76487
C          3.28157        0.13901        0.93481
C          3.47571       -0.97091        1.72445
C          4.69253       -1.18446        2.36054
H          6.64494       -0.39558        2.68898
H          6.29916        1.58439        1.26932
H          4.12442        1.92342        0.14660
H          2.66866       -1.67020        1.86925
C          4.88195       -2.36557        3.24580
C          0.90798        4.79649       -0.66173
C          1.78549        4.11317       -1.48092
C          2.04589        2.77525       -1.25000
C          1.42473        2.13481       -0.20412
C          0.57801        2.82174        0.63541
C          0.29966        4.16470        0.41425
H          0.68989        5.83362       -0.85151
H          2.25646        4.61791       -2.30844
H          2.71304        2.22112       -1.89091
H          0.15221        2.31870        1.48657
C         -0.66380        4.89069        1.28534
Pd        -0.05498       -0.38568        1.42237
C          1.29404        1.57791       -4.40992
C         -0.36996       -1.34941       -4.52645
H          0.93985        1.33102       -5.41151
H          1.86124        2.50754       -4.47503
H          1.98305        0.79413       -4.09321
H         -1.11065       -0.57204       -4.33634
H          0.16625       -1.08986       -5.43999
H         -0.91140       -2.27892       -4.70796
H          0.38510       -5.49048       -1.34868
H         -0.35031       -5.36972        0.25099
H         -1.11274       -6.35571       -0.99421
H         -4.64512        3.08953        3.67373
H         -2.91944        3.17647        3.33327
H         -4.07396        3.93040        2.23069
H          5.93625       -2.63324        3.32870
H          4.50579       -2.15959        4.24883
H          4.34829       -3.23483        2.85869
H         -0.65728        4.48784        2.29918
H         -0.41651        5.95126        1.34868
H         -1.67867        4.80341        0.89460
