105
-153.06278734
Cl         0.05054        1.92693        3.09926
Pd        -0.44034        1.34067        0.98046
P         -1.05755        0.54685       -1.14665
N         -0.53323       -0.90969       -1.98622
C          0.28296       -1.97506       -1.61307
C          0.34404       -2.47738       -0.28934
C          1.22727       -3.53948        0.00315
C          1.26377       -4.09526        1.40819
C          2.43952       -5.04242        1.69872
C          2.66794       -6.01333        0.53759
C          2.96361       -5.24159       -0.75602
C          2.00328       -4.10774       -1.01143
C          1.88869       -3.62647       -2.30893
C          1.04441       -2.58977       -2.60579
H          0.98173       -2.21442       -3.61240
H          2.48730       -4.07101       -3.08599
H          3.98132       -4.83498       -0.71986
H          3.47913       -6.71804        0.76973
H          3.35018       -4.45164        1.85970
H          1.29049       -3.25924        2.11583
C         -0.65899       -2.07189        0.72738
C         -0.23210       -1.47734        1.94681
C         -1.15873       -1.34352        2.98483
C         -2.45241       -1.76939        2.83580
C         -2.89057       -2.34855        1.65126
C         -4.31528       -2.84499        1.59199
C         -4.61033       -3.77985        0.40893
C         -3.95178       -3.26591       -0.87359
C         -2.42967       -3.15101       -0.70030
C         -1.99929       -2.48344        0.58383
H         -1.97375       -4.14713       -0.74434
H         -4.36450       -2.28100       -1.12428
H         -5.69378       -3.90051        0.26737
H         -4.98683       -1.98055        1.55603
H         -3.14952       -1.65828        3.64911
H         -0.84425       -0.88095        3.90386
N          1.07115       -0.99004        2.12969
P          1.63877        0.23668        0.99899
C          2.62356       -0.31969       -0.37854
C          2.46204        0.30566       -1.58990
C          3.25739       -0.06192       -2.65983
C          4.22069       -1.05187       -2.51438
C          4.38835       -1.64650       -1.27025
C          3.59003       -1.27944       -0.20179
H          3.71106       -1.73729        0.76716
H          5.14481       -2.40208       -1.14468
C          5.08188       -1.44607       -3.66290
H          3.13111        0.41667       -3.61577
H          1.70726        1.06735       -1.69287
C          2.58610        1.53211        1.80386
C          3.31368        1.25405        2.93580
C          4.04309        2.25879        3.54554
C          4.05513        3.54330        3.01826
C          3.31433        3.80216        1.87285
C          2.58644        2.79641        1.26328
H          2.01285        2.99360        0.37084
H          3.30728        4.79773        1.46314
C          4.81335        4.63302        3.69286
H          4.60634        2.05090        4.43920
H          3.31253        0.25363        3.33735
H          1.23337       -0.56742        3.03463
H         -0.79527       -0.82201       -2.96025
C         -0.63246        1.95902       -2.18411
C         -0.99047        3.22870       -1.79898
C         -0.65581        4.31481       -2.58444
C          0.04885        4.13943       -3.76695
C          0.39151        2.85071       -4.15158
C          0.05143        1.76735       -3.36246
H          0.33280        0.77153       -3.66004
H          0.92751        2.70081       -5.07325
C          0.39247        5.30608       -4.62628
H         -0.94050        5.30817       -2.28214
H         -1.53215        3.36509       -0.87858
C         -2.85205        0.47009       -1.12185
C         -3.50402        0.58381       -2.32720
C         -4.88592        0.52648       -2.37298
C         -5.62443        0.36960       -1.20826
C         -4.94811        0.25095       -0.00266
C         -3.56680        0.28921        0.03727
H         -3.04067        0.18764        0.97280
H         -5.51246        0.13707        0.90684
C         -7.11033        0.28617       -1.25138
H         -5.39882        0.60778       -3.31601
H         -2.92838        0.71876       -3.22985
Cl        -2.29021        2.62489        1.01415
H          2.95004       -5.92247       -1.61678
H          2.27601       -5.59095        2.63712
H          1.77126       -6.63017        0.39741
H          0.31575       -4.61164        1.60000
H         -4.20061       -3.91346       -1.72623
H         -2.00844       -2.59701       -1.54627
H         -4.54832       -3.35132        2.53758
H         -4.22940       -4.78413        0.63363
H          4.56155       -1.30524       -4.61136
H          5.99407       -0.84837       -3.68660
H          5.36842       -2.49666       -3.59647
H          4.18816        5.14043        4.42875
H          5.69087        4.24133        4.20920
H          5.15775        5.37712        2.97330
H         -0.40879        5.51283       -5.33703
H          0.55039        6.20355       -4.02652
H          1.30633        5.12232       -5.19301
H         -7.43882       -0.75386       -1.27570
H         -7.55506        0.75953       -0.37490
H         -7.50883        0.78612       -2.13524
