111
-148.55133760
P         -1.61623        2.66752        0.49018
P         -0.25830       -0.18036        0.55115
C         -1.15135        1.92708        2.08036
C         -0.61639        0.65705        2.10779
C         -0.53208        4.12461        0.13934
C          0.32510        3.86950       -1.08180
C         -1.29210        2.63793        3.25518
H         -1.66941        3.64681        3.22470
C         -0.92301        2.06167        4.45839
H         -1.03715        2.61509        5.37619
C         -0.40149        0.78242        4.48383
H         -0.10857        0.33623        5.41993
C         -0.23737        0.08155        3.30261
H          0.20054       -0.90432        3.30032
Pd        -1.58466        0.90409       -1.00383
Cl        -3.21228        1.85090       -2.21558
Cl        -1.31549       -0.87750       -2.35257
C         -1.53147        5.28828       -0.01976
C         -3.27053        3.49972        0.52450
H          0.98450        3.01195       -0.93308
H         -0.29784        3.65485       -1.95260
H          0.94560        4.73610       -1.32166
H         -1.69600        5.46530       -1.09145
H         -1.09696        6.22196        0.36798
H         -3.71272        3.32390       -0.46463
C         -2.89502        4.98563        0.66499
C         -4.18033        2.95672        1.60566
H          0.08818        4.26490        1.03445
H         -2.83877        5.24022        1.73213
H         -3.69261        5.62229        0.25227
H         -5.15899        3.44138        1.58224
H         -4.33237        1.88117        1.48988
H         -3.75874        3.12208        2.59727
C         -0.67280       -4.70904        0.83594
C         -1.62721       -3.86539        1.45860
C         -1.44884       -2.49434        1.36859
C         -0.40989       -1.96056        0.65098
C          0.45556       -2.77024       -0.03667
C          0.32676       -4.14891        0.00023
O         -0.70137       -6.11019        1.06835
C         -2.82878       -4.41583        2.24294
H         -2.12170       -1.81700        1.86637
H          1.23738       -2.30673       -0.61174
C          1.26276       -5.01443       -0.85828
C          3.61828        1.58524       -1.06268
C          2.81235        0.77973       -1.90730
C          1.65378        0.23513       -1.38144
C          1.32349        0.40364       -0.06270
C          2.14364        1.10832        0.77848
C          3.31885        1.67977        0.32056
O          4.69942        2.32834       -1.60780
C          3.12984        0.55486       -3.39362
H          0.95343       -0.28376       -2.01176
H          1.83518        1.23453        1.80137
C          4.20973        2.44048        1.31468
C         -2.42565       -4.62183        3.71094
C         -4.01482       -3.42595        2.19265
C         -3.32622       -5.74087        1.63694
C          1.70994       -4.24353       -2.12072
C          2.51196       -5.38275       -0.04404
C          0.54650       -6.28903       -1.34057
C          0.08397       -6.53370        2.17554
H         -1.60280       -5.32704        3.79878
H         -2.10423       -3.68115        4.15760
H         -3.26158       -5.00515        4.29551
H         -4.90685       -3.86836        2.63554
H         -3.80231       -2.51339        2.74763
H         -4.25080       -3.15607        1.16362
H         -2.57182       -6.51999        1.71226
H         -4.21899       -6.09635        2.15077
H         -3.56955       -5.61255        0.58276
H          2.25569       -4.89629       -2.80160
H          0.84962       -3.84331       -2.65678
H          2.37358       -3.41846       -1.86814
H          3.20063       -5.98410       -0.63702
H          3.03934       -4.48547        0.27901
H          2.25072       -5.95109        0.84503
H         -0.36366       -6.03481       -1.88280
H          1.18569       -6.87109       -2.00394
H          0.26961       -6.92837       -0.50591
H          0.58826       -5.68175        2.63327
H         -0.55523       -7.01768        2.91368
H          0.82478       -7.25965        1.84082
C          4.34756        3.63369       -2.05113
C          2.58427       -0.81036       -3.86970
C          2.46310        1.66239       -4.22414
C          4.64862        0.53817       -3.64383
C          3.76781        3.91122        1.36756
C          4.08184        1.83964        2.73350
C          5.69414        2.34194        0.91956
H          2.90092       -1.01806       -4.89150
H          2.95511       -1.61457       -3.23610
H          1.49584       -0.83834       -3.86139
H          2.66045        1.52611       -5.28704
H          1.38312        1.65534       -4.07771
H          2.82834        2.64562       -3.93777
H          5.13041       -0.21871       -3.02576
H          4.87126        0.31618       -4.68720
H          5.10197        1.49740       -3.40841
H          4.37476        4.47617        2.07454
H          3.85680        4.38648        0.39384
H          2.72645        3.98899        1.67939
H          4.80735        2.28976        3.41074
H          3.09556        2.01688        3.15999
H          4.26140        0.76498        2.71703
H          5.88272        2.81535       -0.04047
H          6.00214        1.29967        0.84358
H          6.32939        2.83053        1.65796
H          3.28810        3.82272       -1.87778
H          4.94104        4.37475       -1.51596
H          4.56353        3.73065       -3.11496
