75
-122.81384222
P          1.88576       -0.52564       -0.14337
C          3.31542       -1.21899       -1.00218
C          4.32197       -1.75244       -0.22819
C          5.43757       -2.30754       -0.82910
C          5.53963       -2.32478       -2.20561
C          4.53295       -1.78334       -2.97938
C          3.42298       -1.22667       -2.37338
H          2.65058       -0.77173       -2.96750
H          4.61537       -1.78651       -4.05390
H          6.40737       -2.75748       -2.67625
H          6.22346       -2.72734       -0.22296
H          4.22776       -1.73674        0.84624
C          1.62947       -1.58063        1.28747
C          1.87934       -1.10955        2.55599
C          1.79511       -1.96842        3.63626
C          1.46670       -3.29467        3.43584
C          1.21861       -3.76294        2.16065
C          1.30430       -2.90174        1.08134
H          1.13464       -3.25571        0.07637
H          0.95950       -4.79723        2.00511
H          1.39683       -3.96433        4.27739
H          1.98410       -1.60207        4.63183
H          2.14127       -0.07323        2.69432
C          2.25610        1.15972        0.35481
C          3.41171        1.81416       -0.00091
C          3.58493        3.15571        0.31166
C          2.54862        3.83227        0.95485
C          1.38059        3.18981        1.30231
C          1.23670        1.82202        1.02086
O          0.06762        1.12342        1.36186
C         -1.14105        1.78126        1.08538
C         -1.30382        3.15017        1.35068
C         -2.49673        3.76127        1.03464
C         -3.54217        3.04823        0.44900
C         -3.35962        1.69994        0.17524
C         -2.17982        1.07262        0.50069
P         -1.78463       -0.64202        0.10092
C         -1.73056       -1.59040        1.63234
C         -1.42089       -0.97780        2.82484
C         -1.47375       -1.69514        4.00522
C         -1.83117       -3.02846        3.98304
C         -2.13232       -3.64417        2.78442
C         -2.08423       -2.92051        1.60647
H         -2.33396       -3.38441        0.66557
H         -2.40840       -4.68560        2.76584
H         -1.86821       -3.59105        4.90157
H         -1.22777       -1.21571        4.93838
H         -1.12065        0.05627        2.82404
C         -3.08980       -1.38008       -0.89868
C         -4.37180       -1.39396       -0.39752
C         -5.39164       -1.97561       -1.12878
C         -5.11775       -2.54900       -2.35432
C         -3.82747       -2.54846       -2.84542
C         -2.81016       -1.96684       -2.11149
H         -1.79864       -1.96825       -2.48362
H         -3.61225       -2.99952       -3.80016
H         -5.91132       -3.00107       -2.92664
H         -6.39669       -1.98368       -0.74010
H         -4.56679       -0.96379        0.57247
Pd        -0.06085       -0.03431       -1.42984
Cl        -1.74784        0.93396       -2.57690
Cl         1.42196        1.01494       -2.76177
H         -4.13550        1.14928       -0.32553
C         -4.80577        3.73137        0.06442
H         -4.75788        4.07717       -0.96888
H         -4.99634        4.59617        0.70120
H         -5.65911        3.05801        0.15511
H         -2.61434        4.81188        1.23341
S          0.03979        4.05109        2.08122
H          2.65262        4.88050        1.17288
C          4.82143        3.87334       -0.09702
H          4.17416        1.28524       -0.54613
H          5.03800        4.70144        0.57905
H          5.68362        3.20520       -0.09003
H          4.71733        4.27837       -1.10435
