111
-148.55480217
P         -1.76295        2.69867        0.90361
P         -0.38852       -0.12127        0.52760
C         -1.26335        1.73574        2.35951
C         -0.73378        0.47355        2.19344
C         -0.73523        4.22786        0.75254
C          0.10908        4.17464       -0.50332
C         -1.38325        2.26789        3.62748
H         -1.76067        3.26979        3.75026
C         -0.99662        1.52188        4.72758
H         -1.09408        1.93572        5.71798
C         -0.48045        0.25130        4.55807
H         -0.17417       -0.32672        5.41438
C         -0.33837       -0.27080        3.28490
H          0.09620       -1.24600        3.13094
Pd        -1.65959        1.21305       -0.86653
Cl        -3.19553        2.44261       -1.93506
Cl        -1.34188       -0.33951       -2.46228
C         -1.77680        5.36506        0.76774
C         -3.44482        3.45535        1.07635
H          0.78779        3.31860       -0.49328
H         -0.52366        4.07748       -1.38801
H          0.70799        5.08075       -0.62157
H         -1.96380        5.68349       -0.26693
H         -1.36922        6.25088        1.27779
H         -3.90262        3.39992        0.08036
C         -3.11856        4.92037        1.41717
C         -4.30994        2.73510        2.08872
H         -0.10726        4.26403        1.65221
H         -3.05483        5.02664        2.50875
H         -3.94401        5.57844        1.10514
H         -5.30558        3.18031        2.14977
H         -4.42586        1.68023        1.82955
H         -3.87143        2.78007        3.08586
C         -0.59425       -4.64274        0.03584
C         -1.73980       -3.85401       -0.24365
C         -1.66321       -2.48651       -0.03537
C         -0.48797       -1.89737        0.34961
C          0.65083       -2.64152        0.51765
C          0.64172       -4.01402        0.33282
O         -0.69076       -6.05979        0.04614
C         -3.04993       -4.45772       -0.77416
H         -2.52114       -1.85515       -0.19048
H          1.55766       -2.12773        0.78747
C          1.95906       -4.79513        0.46044
C          3.75915        1.28802       -0.71979
C          3.22642        1.69998        0.53131
C          1.97234        1.23711        0.89252
C          1.22983        0.46781        0.03526
C          1.68096        0.18883       -1.22712
C          2.92707        0.61378       -1.65274
O          5.13599        1.47677       -1.00423
C          3.95995        2.63327        1.50921
H          1.56469        1.46837        1.86115
H          1.03131       -0.35755       -1.88906
C          3.31289        0.34433       -3.11648
C         -3.95340       -4.83711        0.40840
C         -3.79784       -3.43635       -1.66198
C         -2.77507       -5.69378       -1.65001
C          2.14341       -5.24666        1.91686
C          1.97187       -6.01488       -0.47877
C          3.16084       -3.90753        0.06134
C         -1.04857       -6.60697        1.30873
H         -3.47432       -5.57286        1.04998
H         -4.17822       -3.96207        1.01774
H         -4.89647       -5.25739        0.05991
H         -4.17968       -2.59896       -1.08009
H         -3.14077       -3.04283       -2.43720
H         -4.65299       -3.90141       -2.15174
H         -2.09746       -5.44247       -2.46529
H         -2.32014       -6.49540       -1.07347
H         -3.69733       -6.08122       -2.08218
H          2.16532       -4.38738        2.58677
H          1.32879       -5.89313        2.23462
H          3.07669       -5.79545        2.04049
H          2.93040       -6.53158       -0.43749
H          1.20024       -6.73152       -0.20841
H          1.79601       -5.70726       -1.50905
H          3.32442       -3.10276        0.77656
H          4.07912       -4.49316        0.02427
H          3.00620       -3.46576       -0.92266
H         -0.26726       -7.28772        1.64628
H         -1.18174       -5.81251        2.04410
H         -1.97503       -7.17284        1.21253
C          5.93562        0.38167       -0.58968
C          4.46704        1.81719        2.70940
C          5.14105        3.36219        0.84525
C          2.98695        3.72118        2.01507
C          2.14388        0.75962       -4.03768
C          4.54365        1.15477       -3.55773
C          3.59191       -1.15664       -3.30113
H          3.64113        1.32408        3.22130
H          5.16895        1.04780        2.39359
H          4.97369        2.45852        3.43012
H          4.81238        3.89092       -0.04882
H          5.58752        4.08759        1.52496
H          5.92071        2.66328        0.55155
H          2.56646        4.27894        1.17928
H          2.16418        3.29603        2.58734
H          3.50082        4.42953        2.66436
H          1.25862        0.14835       -3.87118
H          1.87045        1.80031       -3.86610
H          2.41867        0.65237       -5.08660
H          4.74078        1.02223       -4.62127
H          4.39183        2.21700       -3.36930
H          5.43455        0.84428       -3.01707
H          3.84902       -1.38064       -4.33603
H          2.71731       -1.75039       -3.03700
H          4.41776       -1.48324       -2.67175
H          6.97329        0.56891       -0.86660
H          5.86849        0.25763        0.48988
H          5.59371       -0.53408       -1.06966
