111
-148.55425025
P         -2.57197        2.04325        0.71155
P          0.17151        0.43171        0.42361
C         -1.47949        1.83881        2.14509
C         -0.27398        1.18458        2.00438
C         -3.42366        3.68667        0.72175
C         -2.80865        4.64070       -0.27875
C         -1.85793        2.32534        3.38006
H         -2.81084        2.81636        3.49061
C         -1.02163        2.16381        4.47119
H         -1.31682        2.54437        5.43539
C          0.18758        1.51167        4.32698
H          0.83704        1.38175        5.17698
C          0.55912        1.01488        3.09079
H          1.48960        0.48293        2.96703
Pd        -1.29888        1.38828       -1.09684
Cl        -2.97822        2.15050       -2.37187
Cl         0.09327        0.63632       -2.69353
C         -4.88990        3.30972        0.43986
C         -4.03583        0.91088        0.71934
H         -1.74971        4.80807       -0.06809
H         -2.88117        4.24201       -1.29130
H         -3.31421        5.60912       -0.26990
H         -5.06550        3.36557       -0.64337
H         -5.57020        4.04955        0.88860
H         -4.08604        0.47314       -0.28674
C         -5.21700        1.87407        0.94274
C         -3.89295       -0.17031        1.76865
H         -3.32330        4.08340        1.73987
H         -5.44868        1.90636        2.01624
H         -6.12483        1.48541        0.45679
H         -3.77506        0.26691        2.76186
H         -4.76941       -0.82195        1.79355
H         -3.01579       -0.79208        1.57791
C         -1.26226       -3.89784        0.42131
C         -1.06028       -3.22245        1.65212
C         -0.59112       -1.92011        1.61712
C         -0.39208       -1.27120        0.42679
C         -0.68494       -1.88690       -0.76094
C         -1.15996       -3.18523       -0.80034
O         -1.53488       -5.29172        0.41352
C         -1.32509       -3.88861        3.01150
H         -0.37719       -1.38925        2.52758
H         -0.53587       -1.32827       -1.66756
C         -1.54462       -3.79503       -2.15729
C          4.57901        0.78973       -0.67446
C          3.82431       -0.32716       -1.11387
C          2.48817       -0.39503       -0.75796
C          1.91580        0.55774        0.04292
C          2.66362        1.59084        0.54517
C          4.01161        1.70787        0.24645
O          5.88580        1.00918       -1.18566
C          4.41245       -1.43001       -2.00738
H          1.86368       -1.19066       -1.12427
H          2.17494        2.31393        1.17483
C          4.82800        2.83070        0.90632
C         -1.70226       -2.83344        4.07668
C         -2.50318       -4.87542        2.92090
C         -0.05640       -4.61946        3.47574
C         -2.67737       -4.82582       -2.00221
C         -2.06321       -2.69888       -3.11712
C         -0.30868       -4.45437       -2.78749
C         -0.37388       -6.10794        0.32417
H         -2.00782       -3.31449        5.00555
H         -0.86239       -2.18282        4.31597
H         -2.53052       -2.21398        3.73420
H         -2.27949       -5.69863        2.24674
H         -2.73321       -5.30194        3.89693
H         -3.39649       -4.37328        2.55081
H         -0.21011       -5.09039        4.44635
H          0.23317       -5.39359        2.76938
H          0.77756       -3.92376        3.56595
H         -2.36266       -5.67449       -1.40028
H         -3.54215       -4.37475       -1.51670
H         -2.99410       -5.20916       -2.97183
H         -2.85989       -2.12000       -2.65054
H         -1.27124       -2.01298       -3.41378
H         -2.46106       -3.14062       -4.03031
H          0.09220       -5.23569       -2.14602
H         -0.55287       -4.90080       -3.75104
H          0.47971       -3.71944       -2.94710
H          0.52580       -5.49121        0.31943
H         -0.34269       -6.79075        1.17315
H         -0.41195       -6.70181       -0.58879
C          5.92038        1.82023       -2.35337
C          3.69519       -2.77662       -1.75715
C          4.21950       -1.03978       -3.48081
C          5.90526       -1.65395       -1.70657
C          6.29713        2.41141        1.09757
C          4.74717        4.09676        0.04040
C          4.26877        3.15527        2.31066
H          3.69738       -3.02658       -0.69653
H          2.66278       -2.75333       -2.10196
H          4.19199       -3.58515       -2.29293
H          4.61188       -1.81002       -4.14422
H          3.16202       -0.90453       -3.70712
H          4.72777       -0.10648       -3.71089
H          6.30477       -2.47760       -2.29775
H          6.49369       -0.76924       -1.93626
H          6.05318       -1.88918       -0.65314
H          6.36082        1.48905        1.67393
H          6.78954        2.24240        0.14329
H          6.85895        3.18122        1.62600
H          5.30765        4.91495        0.49193
H          5.15135        3.92114       -0.95366
H          3.71264        4.41920       -0.07493
H          3.28226        3.61314        2.25723
H          4.91863        3.85686        2.83320
H          4.19546        2.25244        2.91651
H          4.91143        2.12523       -2.63405
H          6.52948        2.70460       -2.16712
H          6.37238        1.26215       -3.17316
