72
-98.09255338
Fe        -0.04509        2.79261       -0.04129
P          1.82033       -0.07543       -0.05909
P         -1.87341       -0.07398       -0.08299
C          1.41331        1.58148        0.62320
C          0.45963        1.85699        1.68347
C          0.40518        3.29753        1.86612
C          1.38143        3.91041        0.98351
C          1.99855        2.84808        0.20932
C         -1.41576        1.55677       -0.78509
C         -2.00860        2.84047       -0.44448
C         -1.35705        3.87076       -1.23638
C         -0.34294        3.22574       -2.04979
C         -0.38831        1.79882       -1.78407
C          3.00992       -0.87852        1.10673
C          4.31748       -0.14580        0.76704
C          3.02266        0.15728       -1.45914
C          4.39242        0.24585       -0.74070
C         -3.32918       -0.73724       -1.01359
C         -4.50858       -0.21390       -0.17629
C         -2.66171        0.11663        1.58542
C         -4.15680       -0.17531        1.33545
H         -0.11117        1.11661        2.24262
H         -0.21554        3.82396        2.59543
H          1.60350        4.97697        0.90728
H          2.77443        2.97604       -0.54779
H         -2.83003        2.99244        0.25959
H          0.25198        1.04078       -2.23512
Cl         1.54389       -3.06502       -0.49585
Cl        -1.66088       -3.05069        0.18207
Pd        -0.03227       -1.51156       -0.07299
H          3.08428       -1.93624        0.82989
C          2.54944       -0.74253        2.55229
H          2.76231        1.10542       -1.94465
C          2.98340       -0.97448       -2.48275
H          5.18772       -0.75327        1.05992
H          4.37341        0.76057        1.38740
H          4.81949        1.25355       -0.85191
H          5.10022       -0.41949       -1.25465
H         -1.58590        4.93849       -1.21817
H          0.32309        3.72329       -2.75813
H          2.47608        0.32388        2.80311
H          3.83819       -0.86709       -3.16512
H         -3.27838       -1.83056       -0.95784
C         -3.35263       -0.28962       -2.47005
H         -2.50862        1.16178        1.87915
C         -2.03121       -0.82315        2.60940
H         -5.40758       -0.82313       -0.35803
H         -4.76300        0.79807       -0.52209
H         -4.78500        0.55704        1.86400
H         -4.40476       -1.14688        1.78379
H         -4.32607       -0.54712       -2.91023
H         -0.93774       -0.74870        2.55867
C          3.46430       -1.45469        3.53683
H          3.53123       -2.52045        3.31036
H          4.47834       -1.05290        3.49803
H          3.11246       -1.35851        4.56650
C          1.69671       -1.04164       -3.28676
H          1.51613       -0.11077       -3.82738
H          1.71599       -1.84917       -4.02218
H          0.83934       -1.21916       -2.63905
C         -2.23042       -0.89982       -3.29232
H         -2.25545       -0.57063       -4.33353
H         -1.25774       -0.62653       -2.88519
H         -2.28410       -1.99010       -3.28781
C         -2.50652       -0.55885        4.02987
H         -2.26413        0.45868        4.34243
H         -3.58879       -0.67163        4.11424
H         -2.04821       -1.24168        4.74888
H          1.52522       -1.13067        2.64003
H          3.15266       -1.92372       -1.95842
H         -3.29983        0.80649       -2.50501
H         -2.25232       -1.85871        2.31882
