111
-148.55237187
P         -2.19875        2.14253        1.47672
P          0.17415        0.19276        0.61935
C         -1.12429        1.40527        2.73622
C         -0.09905        0.56332        2.36237
C         -2.35327        3.96687        1.74686
C         -1.83718        4.73749        0.55128
C         -1.32130        1.70097        4.06995
H         -2.10864        2.37999        4.35384
C         -0.50175        1.13455        5.03076
H         -0.65698        1.36319        6.07252
C          0.51491        0.27813        4.65515
H          1.15265       -0.16472        5.40244
C          0.71749       -0.00653        3.31659
H          1.50944       -0.67054        3.00996
Pd        -1.40598        1.40547       -0.56384
Cl        -3.10935        2.52793       -1.49660
Cl        -0.51021        0.61874       -2.46356
C         -3.85931        4.16310        2.02383
C         -3.97793        1.64259        1.58266
H         -1.90032        5.81644        0.71161
H         -0.79539        4.48731        0.33598
H         -2.42254        4.50315       -0.33908
H         -4.18769        5.12134        1.59597
H         -4.03286        4.24976        3.10644
H         -4.17424        1.00156        0.71247
C         -4.71307        2.99261        1.45900
C         -4.27785        0.90411        2.87046
H         -1.75386        4.20110        2.63724
H         -5.68272        2.93362        1.97491
H         -4.94859        3.19194        0.40310
H         -5.31005        0.54675        2.89666
H         -3.61670        0.04491        3.00301
H         -4.13872        1.55964        3.73140
C         -1.29099       -3.98154       -0.45563
C         -2.14667       -3.08195        0.23172
C         -1.64568       -1.83831        0.58345
C         -0.38664       -1.45393        0.19988
C          0.39097       -2.26858       -0.58078
C         -0.04260       -3.52881       -0.95278
O         -1.66156       -5.34331       -0.61452
C         -3.59658       -3.43545        0.59806
H         -2.23699       -1.14526        1.15692
H          1.34733       -1.90102       -0.90704
C          0.84448       -4.38826       -1.86655
C          4.39759        0.87853       -0.94399
C          4.15560       -0.17066       -0.02076
C          2.86279       -0.35166        0.44247
C          1.85459        0.50499        0.08190
C          2.11106        1.59009       -0.71495
C          3.37922        1.82637       -1.21830
O          5.64061        0.95342       -1.62694
C          5.25756       -1.13420        0.44730
H          2.62053       -1.18994        1.07231
H          1.29240        2.24059       -0.96934
C          3.61033        3.06394       -2.09871
C         -4.19440       -4.45165       -0.39232
C         -3.63522       -4.00166        2.02526
C         -4.48940       -2.17612        0.53542
C         -0.01181       -5.28681       -2.77714
C          1.70342       -3.49491       -2.79100
C          1.78118       -5.24818       -1.00503
C         -1.26739       -6.17631        0.46826
H         -5.24498       -4.64108       -0.17358
H         -4.12203       -4.07915       -1.41359
H         -3.67312       -5.40441       -0.34771
H         -4.65385       -4.25565        2.31735
H         -3.02663       -4.89947        2.10836
H         -3.25075       -3.27354        2.73920
H         -4.38407       -1.67357       -0.42580
H         -5.53945       -2.43726        0.66474
H         -4.23758       -1.46794        1.32136
H         -0.71124       -4.68722       -3.35877
H          0.61174       -5.85001       -3.47097
H         -0.58863       -6.00303       -2.19684
H          1.07951       -2.78103       -3.32820
H          2.45521       -2.93982       -2.23217
H          2.23378       -4.09744       -3.52801
H          1.21765       -5.92288       -0.36494
H          2.44228       -5.84987       -1.62824
H          2.39941       -4.62083       -0.36341
H         -0.67752       -5.60897        1.18929
H         -2.15047       -6.58122        0.96191
H         -0.67541       -7.00926        0.08898
C          5.67449        0.21862       -2.84430
C          6.63038       -0.43793        0.47648
C          4.97403       -1.62699        1.88471
C          5.30036       -2.35187       -0.48851
C          2.67674        4.21967       -1.67099
C          5.05414        3.58067       -1.96548
C          3.30653        2.70573       -3.56155
H          6.94245       -0.13290       -0.51910
H          6.59536        0.45282        1.10282
H          7.39827       -1.10167        0.87309
H          5.81416       -2.20582        2.26785
H          4.81267       -0.78537        2.55785
H          4.09754       -2.27191        1.92530
H          5.50476       -2.05475       -1.51435
H          6.07439       -3.05427       -0.18038
H          4.34609       -2.87742       -0.47975
H          2.92761        5.13664       -2.20371
H          1.63343        3.99879       -1.89146
H          2.76823        4.41713       -0.60326
H          5.29019        3.79500       -0.92371
H          5.77265        2.84894       -2.32610
H          5.19793        4.49468       -2.54114
H          3.95772        1.91039       -3.91606
H          3.44376        3.56900       -4.21211
H          2.27757        2.36250       -3.66741
H          4.71384       -0.26640       -3.02264
H          5.90080        0.89132       -3.67140
H          6.45908       -0.53621       -2.79510
