105
-153.06417967
Cl         0.22687        3.03525        2.56289
Pd        -0.24305        1.72598        0.79055
P         -0.69275        0.52594       -1.19354
N          0.43904       -0.76002       -1.59955
C          0.49672       -2.15204       -1.42410
C         -0.04137       -2.83894       -0.30280
C          0.22972       -4.21334       -0.13361
C         -0.17592       -4.89240        1.15446
C          0.60969       -6.18040        1.43944
C          0.60447       -7.09057        0.20777
C          1.24917       -6.38931       -0.99956
C          0.94139       -4.91448       -1.11042
C          1.43404       -4.22719       -2.21262
C          1.23924       -2.87804       -2.35376
H          1.65772       -2.35480       -3.19620
H          2.00080       -4.76783       -2.95185
H          2.33823       -6.50993       -0.95322
H          1.11065       -8.04179        0.42475
H          1.64476       -5.92463        1.69840
H         -0.05463       -4.18534        1.98487
C         -0.70939       -2.09905        0.79495
C          0.07170       -1.21942        1.58744
C         -0.51450       -0.59278        2.68869
C         -1.83073       -0.81604        3.00231
C         -2.60790       -1.67239        2.23225
C         -4.02448       -1.98490        2.61774
C         -4.27290       -3.49414        2.46774
C         -4.08009       -3.94595        1.00547
C         -2.92832       -3.20868        0.27105
C         -2.05534       -2.32069        1.12889
H         -2.30735       -3.92065       -0.28277
H         -5.02025       -3.80956        0.45597
H         -5.27418       -3.76108        2.83309
H         -4.70560       -1.42387        1.96774
H         -2.27292       -0.32586        3.85270
H          0.07902        0.08586        3.27497
N          1.38693       -0.94430        1.20890
P          1.85976        0.74566        1.09391
C          2.69827        1.05483       -0.45748
C          2.36844        2.17481       -1.18309
C          2.87292        2.33759       -2.45936
C          3.70845        1.37981       -3.01615
C          4.03936        0.26175       -2.26273
C          3.54143        0.10315       -0.98198
H          3.77780       -0.77655       -0.40425
H          4.68008       -0.49067       -2.69021
C          4.19844        1.52545       -4.41456
H          2.59688        3.19981       -3.04214
H          1.69601        2.90634       -0.76345
C          2.80416        1.30567        2.50206
C          2.91794        0.47899        3.59338
C          3.62983        0.90012        4.70241
C          4.22475        2.15495        4.72276
C          4.10637        2.96954        3.60412
C          3.39455        2.54617        2.49608
H          3.29033        3.17940        1.62919
H          4.57265        3.93993        3.60751
C          5.00951        2.60477        5.90573
H          3.72690        0.25547        5.55915
H          2.45411       -0.49414        3.56688
H          1.67052       -1.35942        0.32837
H          1.29762       -0.28041       -1.84481
C         -0.52738        1.71396       -2.53356
C         -0.88673        3.03307       -2.39689
C         -0.71015        3.91149       -3.44814
C         -0.17114        3.47478       -4.65053
C          0.16317        2.13419       -4.78265
C         -0.01372        1.25921       -3.72568
H          0.25700        0.22023       -3.82274
H          0.56783        1.78055       -5.71551
C          0.00562        4.41594       -5.79068
H         -0.99163        4.94513       -3.34090
H         -1.31073        3.36971       -1.46710
C         -2.35767       -0.11869       -1.33310
C         -2.59492       -0.99826       -2.36350
C         -3.87713       -1.46957       -2.58911
C         -4.93008       -1.06056       -1.78125
C         -4.66998       -0.17423       -0.74466
C         -3.39108        0.30465       -0.53199
H         -3.20165        1.03631        0.23389
H         -5.47935        0.14948       -0.11285
C         -6.30305       -1.59596       -1.99329
H         -4.06444       -2.16489       -3.38931
H         -1.77254       -1.31198       -2.98733
Cl        -2.10709        2.94765        0.48128
H          0.94150       -6.88085       -1.93135
H          0.20493       -6.70392        2.31719
H         -0.43117       -7.35898       -0.03657
H         -1.24547       -5.12460        1.12032
H         -3.89712       -5.02866        0.98039
H         -3.35816       -2.57246       -0.50704
H         -4.22718       -1.64561        3.64106
H         -3.56955       -4.03609        3.11235
H          5.18236        1.07049       -4.53659
H          3.51478        1.04397       -5.11522
H          4.28194        2.57629       -4.69531
H          4.91847        3.68221        6.05054
H          4.66163        2.11836        6.81814
H          6.06742        2.36954        5.78112
H         -0.88247        4.42817       -6.42394
H          0.18190        5.43311       -5.43803
H          0.85694        4.12854       -6.40942
H         -6.47015       -1.84768       -3.04148
H         -6.46322       -2.49774       -1.40083
H         -7.05917       -0.86473       -1.70413
