58
-89.86559626
P          1.67885        0.37380        0.84636
C          2.97458        1.59142        0.56045
C          2.76848        2.65710       -0.28605
C          3.76651        3.59672       -0.46963
C          4.96441        3.46932        0.20472
C          5.16358        2.40850        1.06553
C          4.16274        1.47053        1.24671
H          4.30104        0.64680        1.92938
H          1.82992        2.74825       -0.80801
C          2.23126       -1.30056        0.48438
C          1.30808       -2.31846        0.54864
C          1.68482       -3.61703        0.26109
C          2.99064       -3.88870       -0.09451
C          3.91360       -2.86417       -0.17120
C          3.53041       -1.56659        0.11593
H          4.23758       -0.75841        0.03594
H          0.28289       -2.08817        0.77957
C          1.23634        0.52910        2.62447
C         -0.02070       -0.20310        3.05857
C         -1.30427        0.41770        2.52747
P         -1.70416       -0.00829        0.78361
C         -2.01684       -1.76971        0.58725
C         -2.06988       -2.28158       -0.68910
C         -2.26763       -3.63498       -0.88686
C         -2.41539       -4.47104        0.20151
C         -2.37291       -3.95476        1.48157
C         -2.17535       -2.59944        1.67466
H         -2.14678       -2.19028        2.67101
H         -1.95366       -1.61206       -1.52569
C         -3.15999        0.94609        0.34949
C         -4.36844        0.31547        0.16165
C         -5.48369        1.05700       -0.18424
C         -5.37806        2.42512       -0.34063
C         -4.16232        3.05286       -0.15246
C         -3.04852        2.30872        0.19426
H         -2.09008        2.78307        0.33659
H         -4.43249       -0.75413        0.28021
Pd        -0.01746        0.47500       -0.73837
Cl         1.57012        0.72777       -2.30753
Cl        -1.65797        0.51974       -2.28389
H         -2.17278        0.10349        3.11161
H         -1.26225        1.50623        2.59709
H          0.03908       -1.25644        2.75969
H         -0.05888       -0.22232        4.15901
H          2.10958        0.17442        3.17745
H          1.14632        1.59703        2.83311
H          3.60885        4.42545       -1.14020
H          6.09562        2.31170        1.59776
H          0.95632       -4.40988        0.30397
H          4.93041       -3.07370       -0.46020
H         -2.30363       -4.03439       -1.88702
H         -2.49286       -4.60733        2.33077
H         -6.43139        0.56669       -0.33500
H         -4.07902        4.11971       -0.27947
H          5.74355        4.20014        0.06122
H          3.28769       -4.89959       -0.32158
H         -2.56769       -5.52750        0.05177
H         -6.24550        3.00379       -0.61341
