111
-148.55273140
P         -1.61050        2.79596       -0.24374
P         -0.50520       -0.09905        0.46327
C         -1.73590        2.15995        1.45430
C         -1.31809        0.87742        1.74248
C         -0.37345        4.16914       -0.30836
C          0.80340        3.78509       -1.17976
C         -2.21421        2.96719        2.46673
H         -2.49702        3.98367        2.24793
C         -2.30163        2.47684        3.75827
H         -2.67971        3.10644        4.54714
C         -1.89866        1.18543        4.03904
H         -1.96160        0.80575        5.04553
C         -1.39444        0.38628        3.02877
H         -1.04178       -0.61205        3.23574
Pd        -1.21248        0.89466       -1.49856
Cl        -2.28883        1.83566       -3.22027
Cl        -0.61548       -1.03388       -2.49611
C         -1.18910        5.36633       -0.83793
C         -3.12594        3.70287       -0.80125
H          0.47127        3.54468       -2.19185
H          1.52940        4.59838       -1.25150
H          1.31917        2.90562       -0.78887
H         -0.98768        5.48029       -1.91187
H         -0.84128        6.30163       -0.37414
H         -3.23075        3.47933       -1.87070
C         -2.71775        5.17587       -0.62093
C         -4.37441        3.28041       -0.05666
H         -0.05773        4.34211        0.72887
H         -2.99230        5.50120        0.39175
H         -3.29517        5.81883       -1.30287
H         -4.55221        2.20772       -0.16147
H         -4.29170        3.49513        1.00886
H         -5.25621        3.80746       -0.42796
C         -0.97089       -4.61218        0.84040
C          0.32201       -4.03085        0.87652
C          0.42467       -2.65569        0.75467
C         -0.69151       -1.86574        0.66736
C         -1.94591       -2.41285        0.72947
C         -2.12105       -3.78167        0.85744
O         -1.11162       -6.02286        0.75279
C          1.60576       -4.86631        1.00195
H          1.38854       -2.18016        0.70998
H         -2.79232       -1.75067        0.66400
C         -3.54638       -4.34408        0.97639
C          3.80114        1.33516        0.08246
C          3.27823        0.41087       -0.85757
C          1.96512        0.00081       -0.70977
C          1.21242        0.40296        0.36080
C          1.74350        1.21714        1.32585
C          3.04801        1.67279        1.23625
O          5.05734        1.95490       -0.15273
C          4.08504       -0.11082       -2.05577
H          1.48939       -0.60995       -1.45699
H          1.11325        1.51322        2.14570
C          3.60589        2.55977        2.35969
C          2.72445       -4.05108        1.69080
C          1.36872       -6.11991        1.86332
C          2.08897       -5.26797       -0.39998
C         -4.47701       -3.32746        1.67634
C         -4.09887       -4.62696       -0.42891
C         -3.56949       -5.62801        1.82575
C         -1.16055       -6.51915       -0.57908
H          3.58964       -4.68039        1.89820
H          3.07061       -3.23031        1.06420
H          2.37676       -3.63820        2.63740
H          2.29292       -6.68020        2.00268
H          0.98797       -5.84361        2.84601
H          0.64582       -6.78791        1.40181
H          3.01254       -5.84367       -0.34490
H          1.34681       -5.87244       -0.91531
H          2.27679       -4.38477       -1.00993
H         -4.64867       -2.44638        1.05994
H         -5.45197       -3.77073        1.87784
H         -4.05323       -3.00471        2.62699
H         -5.11571       -5.01535       -0.37826
H         -4.11420       -3.71608       -1.02691
H         -3.48655       -5.35564       -0.95440
H         -3.13930       -5.44468        2.80977
H         -4.58854       -5.98891        1.96278
H         -2.99933       -6.42565        1.35647
H         -0.35198       -7.23359       -0.73269
H         -2.10572       -7.03635       -0.74295
H         -1.06459       -5.70040       -1.29342
C          4.97824        3.15880       -0.90632
C          5.58638       -0.19091       -1.72613
C          3.63197       -1.54031       -2.43251
C          3.85236        0.81261       -3.26136
C          5.12169        2.35211        2.53000
C          3.30364        4.03193        2.04080
C          2.94806        2.20458        3.71278
H          6.00201        0.79250       -1.52247
H          5.75305       -0.81208       -0.84672
H          6.14729       -0.62002       -2.55604
H          4.28144       -1.96274       -3.19879
H          3.66679       -2.19790       -1.56446
H          2.61877       -1.55227       -2.83109
H          2.79423        0.84835       -3.51998
H          4.17444        1.82908       -3.04765
H          4.40167        0.46137       -4.13439
H          5.66702        2.66023        1.64152
H          5.50502        2.93209        3.36914
H          5.34679        1.30184        2.71238
H          2.22952        4.19474        1.95642
H          3.68345        4.68708        2.82432
H          3.75845        4.33365        1.10040
H          1.89404        2.47786        3.73355
H          3.43227        2.73848        4.53015
H          3.03044        1.13701        3.91523
H          5.55865        3.05669       -1.82307
H          3.94131        3.38414       -1.15715
H          5.39865        3.98090       -0.32733
