105
-153.07284527
Cl        -0.07190        1.89740        3.07833
Pd        -0.62819        1.13521        1.02566
P         -1.26820        0.51435       -1.13552
N         -1.01762       -1.06192       -1.86607
C          0.03955       -1.94603       -1.62505
C          0.31621       -2.45881       -0.33048
C          1.35667       -3.39427       -0.16336
C          1.60712       -3.96667        1.21155
C          2.50384       -5.21432        1.22975
C          3.70816       -5.03820        0.30048
C          3.24764       -4.79255       -1.14428
C          2.11375       -3.80505       -1.26361
C          1.80604       -3.31072       -2.52497
C          0.78775       -2.41180       -2.70642
H          0.56365       -2.03995       -3.69090
H          2.38532       -3.64325       -3.36973
H          4.08809       -4.44078       -1.75626
H          4.30815       -4.18586        0.64281
H          2.83266       -5.44427        2.25308
H          2.05563       -3.18392        1.83398
C         -0.60989       -2.19240        0.79491
C         -0.12965       -1.58710        1.98903
C         -0.99770       -1.49104        3.08171
C         -2.29352       -1.93026        2.99472
C         -2.78325       -2.51681        1.83397
C         -4.21397       -3.00318        1.83535
C         -4.71173       -3.55850        0.48918
C         -3.60322       -4.32148       -0.24146
C         -2.39809       -3.40532       -0.49594
C         -1.93320       -2.67025        0.73679
H         -1.56228       -3.98745       -0.90397
H         -3.97632       -4.75084       -1.18209
H         -5.05605       -2.73332       -0.14599
H         -4.86044       -2.18054        2.16672
H         -2.95238       -1.82355        3.83985
H         -0.64631       -1.01941        3.98259
N          1.14187       -1.00172        2.07202
P          1.53679        0.19768        0.83822
C          2.67253       -0.38543       -0.41159
C          2.54067        0.07304       -1.69769
C          3.45573       -0.31118       -2.66027
C          4.51261       -1.15004       -2.33216
C          4.64939       -1.57038       -1.01548
C          3.72993       -1.18663       -0.05555
H          3.83176       -1.50330        0.97024
H          5.47996       -2.20038       -0.74686
C          5.50250       -1.55962       -3.36582
H          3.35198        0.03776       -3.67338
H          1.72171        0.72748       -1.93930
C          2.36193        1.63245        1.53994
C          3.14109        1.51343        2.66526
C          3.77958        2.62840        3.17736
C          3.65146        3.86417        2.55717
C          2.86395        3.96117        1.41794
C          2.22683        2.84547        0.90691
H          1.61937        2.91633        0.01837
H          2.74956        4.91649        0.93486
C          4.31214        5.07093        3.12693
H          4.38110        2.54523        4.06640
H          3.25305        0.55120        3.13755
H          1.33738       -0.54100        2.95125
H         -1.32469       -0.94840       -2.82351
C         -0.48840        1.81237       -2.09957
C         -0.43213        3.08749       -1.58672
C          0.20111        4.08908       -2.29872
C          0.76787        3.82407       -3.53786
C          0.68906        2.53452       -4.04591
C          0.05556        1.53450       -3.33134
H          0.00683        0.53145       -3.72089
H          1.13377        2.31670       -5.00195
C          1.48190        4.89322       -4.28914
H          0.25946        5.08512       -1.89407
H         -0.89229        3.29679       -0.63377
C         -3.04342        0.77373       -1.19463
C         -3.58125        1.75527       -1.99317
C         -4.95104        1.94229       -2.02593
C         -5.79150        1.14401       -1.26187
C         -5.22873        0.16383       -0.45640
C         -3.85876       -0.02372       -0.43080
H         -3.41358       -0.76991        0.20547
H         -5.87001       -0.44179        0.16065
C         -7.26380        1.36626       -1.26700
H         -5.37580        2.71608       -2.64234
H         -2.92880        2.37599       -2.58527
Cl        -2.69285        1.92128        1.47362
H          2.93258       -5.74019       -1.59719
H          1.92104       -6.08568        0.90568
H          4.37565       -5.90976        0.35673
H          0.64091       -4.19401        1.67946
H         -3.28686       -5.17641        0.36922
H         -2.64980       -2.67035       -1.26892
H         -4.31076       -3.77655        2.60681
H         -5.59254       -4.19974        0.63447
H          5.94668       -2.52640       -3.12453
H          5.03244       -1.64778       -4.34636
H          6.30811       -0.82818       -3.44241
H          5.23707        4.80760        3.64193
H          4.56199        5.78940        2.34498
H          3.65716        5.56773        3.84389
H          1.41671        4.72899       -5.36563
H          1.05546        5.87487       -4.07796
H          2.53766        4.91893       -4.01574
H         -7.59656        1.78327       -2.21854
H         -7.80320        0.43131       -1.10872
H         -7.55254        2.05972       -0.47603
