171
-217.84527014
P         -1.62828        0.41484       -0.36083
P          1.60630       -0.42085       -0.37780
C         -0.91191        1.36118       -1.70825
C          0.86716       -1.35970       -1.72018
C         -0.10941        0.74595       -2.66237
C          0.51890        1.54552       -3.63650
C          0.28530        2.91050       -3.64550
C         -0.54154        3.49655       -2.71065
C         -1.12952        2.71707       -1.73372
C          1.06212       -2.71926       -1.74900
C          0.45521       -3.48893       -2.72179
C         -0.36129       -2.88816       -3.65608
C         -0.57092       -1.51936       -3.64550
C          0.06850       -0.73172       -2.66903
Cl         1.63711        0.33655        2.74455
Cl        -1.51764       -0.35691        2.87776
C         -1.45042       -0.90466       -4.67775
C          1.41941        0.95139       -4.66269
H         -0.72261        4.55866       -2.73680
H         -1.76130        3.16824       -0.98551
H          1.69423       -3.18255       -1.00918
H          0.61689       -4.55416       -2.74784
H          0.76123        3.51623       -4.39819
H         -0.84663       -3.48499       -4.40986
C         -3.92391       -3.30593       -1.51060
C         -2.95259       -3.39114       -0.52034
C         -2.24269       -2.23967       -0.21058
C         -2.49961       -1.06277       -0.86800
C         -3.46456       -0.99171       -1.84200
C         -4.20105       -2.12081       -2.18224
H         -4.49742       -4.17901       -1.75869
H         -1.49770       -2.25474        0.56654
H         -3.64527       -0.04422       -2.32041
C         -4.31452        2.94290        2.27558
C         -4.88626        1.95060        1.48820
C         -4.04501        1.20025        0.67684
C         -2.69577        1.44970        0.65033
C         -2.14902        2.44089        1.42671
C         -2.94886        3.20316        2.26690
H         -4.95503        3.51549        2.91961
H         -4.43368        0.40218        0.06984
H         -1.08465        2.60379        1.39826
C          4.37300       -2.94976        2.17720
C          3.01951       -3.26737        2.13971
C          2.19567       -2.50313        1.32400
C          2.70510       -1.45317        0.60206
C          4.03923       -1.14096        0.66751
C          4.90480       -1.88791        1.45385
H          5.02719       -3.53945        2.78972
H          1.14234       -2.71642        1.26049
H          4.40791       -0.29669        0.11155
C          3.88870        3.30397       -1.53580
C          2.89154        3.40113       -0.57249
C          2.17312        2.25287       -0.26910
C          2.46039        1.06453       -0.89297
C          3.45253        0.98205       -1.83817
C          4.18964        2.10977       -2.18040
H          4.46367        4.17595       -1.78391
H          1.39159        2.27953        0.47040
H          3.65438        0.02631       -2.29138
Pd        -0.00933       -0.01630        1.25159
C         -3.59435       -5.83048       -0.16996
C         -2.65492       -4.68447        0.25070
C         -2.83911       -4.43090        1.75944
C         -1.20409       -5.11242       -0.02744
H         -3.47740       -6.06584       -1.22764
H         -3.37520       -6.73657        0.39485
H         -4.63657       -5.57022        0.01408
H         -2.65106       -5.33798        2.33351
H         -2.15666       -3.66274        2.12052
H         -3.85532       -4.10006        1.97245
H         -0.94915       -6.01550        0.52676
H         -1.06093       -5.31507       -1.08819
H         -0.50390       -4.32998        0.26084
C         -6.67073       -2.36772       -2.50464
C         -5.33591       -2.07817       -3.21558
C         -5.08824       -3.14147       -4.30225
C         -5.43523       -0.69827       -3.89498
H         -6.85722       -1.63298       -1.72175
H         -7.50329       -2.33165       -3.20701
H         -6.66565       -3.35411       -2.04208
H         -4.12959       -2.97887       -4.79292
H         -5.08125       -4.14625       -3.88189
H         -5.86643       -3.10718       -5.06456
H         -4.50618       -0.44185       -4.40281
H         -6.23150       -0.69021       -4.63915
H         -5.65817        0.08242       -3.16793
C         -6.77025        1.25250        2.98452
C         -6.39736        1.68805        1.55589
C         -6.82457        0.57495        0.57777
C         -7.15730        2.97572        1.18809
H         -7.83603        1.03831        3.06205
H         -6.22292        0.35328        3.26674
H         -6.53198        2.02974        3.70970
H         -7.90071        0.40918        0.62594
H         -6.57705        0.84035       -0.44995
H         -6.33577       -0.36897        0.81860
H         -8.23453        2.81095        1.20501
H         -6.93352        3.78203        1.88547
H         -6.88285        3.31174        0.18830
C         -1.56783        5.29606        2.30550
C         -2.29234        4.25276        3.17440
C         -1.27584        3.55183        4.09652
C         -3.32975        4.97977        4.05073
H         -1.10691        6.06729        2.92239
H         -0.78245        4.83253        1.71174
H         -2.26435        5.78015        1.62122
H         -1.76692        2.78883        4.69991
H         -0.48938        3.06355        3.52232
H         -0.80231        4.26509        4.77070
H         -2.84627        5.71991        4.68826
H         -4.06411        5.50185        3.43759
H         -3.85485        4.27901        4.69952
C          3.38371       -4.91890        4.03976
C          2.42427       -4.43984        2.93272
C          2.15434       -5.60519        1.96632
C          1.10397       -4.00387        3.60168
H          2.91962       -5.69947        4.64253
H          4.29881       -5.33488        3.61942
H          3.65044       -4.09789        4.70511
H          1.48001       -5.29999        1.16760
H          3.08101       -5.94638        1.50519
H          1.70300       -6.44980        2.48660
H          0.70765       -4.79718        4.23512
H          1.25990       -3.12177        4.22233
H          0.33924       -3.76409        2.86487
C          6.98213       -1.57216        0.08553
C          6.38864       -1.49773        1.50492
C          7.19494       -2.43547        2.42334
C          6.51273       -0.05921        2.04193
H          6.47428       -0.88724       -0.59240
H          8.04035       -1.31158        0.09059
H          6.88356       -2.57861       -0.32070
H          7.14469       -3.46623        2.07293
H          8.24538       -2.14544        2.44544
H          6.82155       -2.39861        3.44655
H          7.55743        0.24330        2.11109
H          6.00244        0.65169        1.39289
H          6.07078        0.01956        3.03495
C          2.45158        4.47193        1.66353
C          2.55696        4.71715        0.14446
C          1.21521        5.24449       -0.38782
C          3.64112        5.78582       -0.09474
H          2.26756        5.40445        2.19674
H          1.63717        3.79102        1.90569
H          3.37485        4.03945        2.04830
H          0.42408        4.51144       -0.23726
H          0.92615        6.16582        0.11750
H          1.28065        5.45019       -1.45589
H          3.41928        6.69360        0.46630
H          4.61938        5.42725        0.22522
H          3.70029        6.06034       -1.14760
C          5.15437        3.11914       -4.27323
C          5.35405        2.05286       -3.17938
C          5.45410        0.67249       -3.85802
C          6.66935        2.32381       -2.42635
H          5.95405        3.07236       -5.01228
H          4.20823        2.96988       -4.79195
H          5.15069        4.12456       -3.85451
H          5.65311       -0.11165       -3.12790
H          4.53340        0.42671       -4.38621
H          6.26654        0.65686       -4.58440
H          6.66210        3.31020       -1.96371
H          6.82054        1.58681       -1.63778
H          7.52339        2.27652       -3.10174
H         -1.82519        0.06730       -4.35403
H          1.74852       -0.04802       -4.37497
H         -2.31322       -1.53900       -4.88164
H         -0.91109       -0.76409       -5.61538
H          2.31082        1.56465       -4.79711
H          0.91602        0.87750       -5.62758
