171
-217.83587062
P         -1.51469        0.17307       -0.21586
P          1.71910       -0.71707        0.20660
C         -0.68392        0.65941       -1.74346
C          0.87393       -1.96730       -0.79281
C          0.02761       -0.30494       -2.44622
C          0.68123        0.05591       -3.64012
C          0.56723        1.35652       -4.10245
C         -0.13729        2.30387       -3.38961
C         -0.75617        1.95070       -2.20705
C          0.95696       -3.24549       -0.29247
C          0.29318       -4.28354       -0.91692
C         -0.47948       -4.02498       -2.02853
C         -0.59338       -2.74240       -2.53751
C          0.11228       -1.69129       -1.92263
Cl         1.21588       -0.34861        3.39129
Cl        -1.91789       -1.00836        2.87777
C         -1.47798       -2.51008       -3.71176
C          1.47939       -0.94099       -4.40623
H         -0.19972        3.31773       -3.74999
H         -1.28693        2.69302       -1.63824
H          1.53989       -3.42662        0.59869
H          0.36903       -5.28586       -0.52814
H          1.04088        1.62382       -5.03160
H         -1.01537       -4.82566       -2.51001
C         -4.68656       -2.89255       -1.26253
C         -3.85080       -3.14391       -0.18045
C         -2.88915       -2.19360        0.13177
C         -2.76746       -1.04760       -0.61162
C         -3.59940       -0.81631       -1.67929
C         -4.58115       -1.73601       -2.02730
H         -5.44578       -3.60952       -1.50822
H         -2.24493       -2.33788        0.98049
H         -3.48036        0.08937       -2.24847
C         -3.70165        3.78130        1.51392
C         -3.86120        3.46079        0.17236
C         -3.20200        2.33753       -0.31208
C         -2.37588        1.59677        0.49935
C         -2.23912        1.93332        1.82488
C         -2.90166        3.02692        2.36169
H         -4.22356        4.63534        1.90253
H         -3.32786        2.03680       -1.33682
H         -1.62979        1.32729        2.46834
C          5.77472       -2.44681        1.26341
C          5.28938       -2.57806       -0.03324
C          4.03892       -2.04360       -0.31608
C          3.31033       -1.41231        0.66150
C          3.80465       -1.29376        1.93414
C          5.04983       -1.80850        2.26381
H          6.73844       -2.85431        1.50051
H          3.62218       -2.12881       -1.30624
H          3.20114       -0.81048        2.68053
C          2.71961        3.43499       -1.31348
C          1.81153        3.31757       -0.26821
C          1.47772        2.03887        0.15894
C          2.03644        0.93274       -0.43886
C          2.94501        1.07006       -1.45965
C          3.30428        2.33110       -1.92064
H          3.00520        4.41241       -1.65362
H          0.79766        1.90954        0.98230
H          3.38577        0.18299       -1.88011
Pd        -0.14326       -0.50458        1.60279
C         -4.33759       -3.96175        2.13548
C         -3.97987       -4.39418        0.70122
C         -2.64085       -5.15374        0.71067
C         -5.07591       -5.34643        0.18629
H         -3.56383       -3.32334        2.56035
H         -5.27332       -3.40339        2.14687
H         -4.45160       -4.82724        2.78776
H         -1.83695       -4.53543        1.10824
H         -2.70515       -6.05114        1.32560
H         -2.36474       -5.45613       -0.29893
H         -6.05255       -4.86292        0.19505
H         -4.86153       -5.67713       -0.82988
H         -5.14311       -6.23411        0.81518
C         -6.43813       -2.61984       -3.52934
C         -5.55395       -1.40970       -3.17088
C         -4.77230       -0.99705       -4.43348
C         -6.46050       -0.24802       -2.72672
H         -7.07791       -2.90315       -2.69396
H         -7.08781       -2.38720       -4.37305
H         -5.82875       -3.47993       -3.80671
H         -4.15776       -0.11558       -4.25619
H         -4.11983       -1.80327       -4.76593
H         -5.45378       -0.76262       -5.25110
H         -7.16953        0.01821       -3.51039
H         -7.02607       -0.51938       -1.83552
H         -5.87190        0.63726       -2.49012
C         -4.25472        5.79845       -0.65313
C         -4.74402        4.33926       -0.72536
C         -6.20142        4.25228       -0.23942
C         -4.68696        3.88719       -2.19812
H         -4.84521        6.44011       -1.30690
H         -4.33171        6.19584        0.35803
H         -3.21212        5.86987       -0.96271
H         -6.29615        4.60460        0.78717
H         -6.85823        4.85794       -0.86359
H         -6.55709        3.22258       -0.27369
H         -5.29368        4.53901       -2.82656
H         -3.66584        3.91800       -2.57815
H         -5.06860        2.87371       -2.31401
C         -3.24113        2.13740        4.67899
C         -2.73950        3.33907        3.85606
C         -3.54282        4.58708        4.26837
C         -1.25279        3.59127        4.16607
H         -2.66457        1.23927        4.46058
H         -3.15873        2.33407        5.74765
H         -4.28591        1.92570        4.45306
H         -3.21091        5.46654        3.71674
H         -4.60809        4.44556        4.08699
H         -3.41429        4.79595        5.33036
H         -0.87772        4.43149        3.58288
H         -1.10793        3.82229        5.22114
H         -0.64496        2.71831        3.93108
C          7.43816       -3.79502       -0.65685
C          6.06551       -3.29558       -1.14678
C          6.29057       -2.32245       -2.31927
C          5.24672       -4.50704       -1.63053
H          7.97721       -4.29486       -1.46159
H          8.05606       -2.96659       -0.31082
H          7.32795       -4.50977        0.15846
H          5.34465       -1.98995       -2.74514
H          6.83855       -1.44074       -1.98753
H          6.86407       -2.79669       -3.11548
H          5.77634       -5.04869       -2.41402
H          5.05976       -5.19795       -0.80869
H          4.28226       -4.19784       -2.03216
C          4.58718       -2.36671        4.66323
C          5.56336       -1.66105        3.70326
C          5.64773       -0.16508        4.05979
C          6.96075       -2.28552        3.87916
H          4.93316       -2.29503        5.69414
H          3.59343       -1.92309        4.61419
H          4.49441       -3.42261        4.41018
H          6.31445        0.35706        3.37383
H          4.66958        0.31111        4.00268
H          6.02705       -0.02586        5.07192
H          7.30978       -2.16868        4.90509
H          6.94483       -3.35224        3.65643
H          7.68986       -1.80573        3.22647
C         -0.29267        4.55085        0.34059
C          1.23971        4.54104        0.46484
C          1.77879        5.86235       -0.11647
C          1.64060        4.46390        1.94978
H         -0.72110        3.63438        0.73931
H         -0.72615        5.38738        0.88838
H         -0.59515        4.64067       -0.70201
H          1.50758        5.96823       -1.16677
H          1.36380        6.71670        0.41825
H          2.86395        5.91557       -0.03070
H          1.24401        3.56543        2.42042
H          2.72516        4.44224        2.05413
H          1.26577        5.32578        2.50137
C          4.86212        1.19114       -3.57775
C          4.36894        2.53488       -3.00832
C          5.57349        3.27503       -2.39812
C          3.78072        3.36817       -4.16145
H          5.60035        1.35014       -4.36364
H          5.33253        0.58779       -2.80206
H          4.03878        0.62220       -4.00698
H          6.35930        3.41969       -3.13933
H          5.28515        4.25562       -2.02105
H          5.99265        2.70742       -1.56745
H          2.91729        2.86796       -4.59658
H          3.46050        4.35156       -3.81977
H          4.51738        3.51455       -4.95123
H         -2.45544       -2.96645       -3.54864
H          0.83882       -1.53736       -5.05663
H         -1.05188       -2.94748       -4.61572
H         -1.63568       -1.44588       -3.89099
H          2.00636       -1.62070       -3.73450
H          2.22519       -0.45272       -5.03494
