105
-153.06469123
Cl         0.14422        2.61264        2.84684
Pd        -0.18990        1.71033        0.80901
P         -0.75074        0.56468       -1.18359
N          0.37225       -0.71491       -1.63386
C          0.54083       -2.08852       -1.41720
C          0.02564       -2.80135       -0.30272
C          0.39655       -4.14844       -0.10538
C         -0.00613       -4.84483        1.17370
C          0.87881       -6.05278        1.51268
C          0.99836       -6.98063        0.30006
C          1.61991       -6.24562       -0.89955
C          1.19466       -4.80336       -1.04642
C          1.66343       -4.09431       -2.14485
C          1.36217       -2.76842       -2.31527
H          1.76007       -2.22711       -3.15627
H          2.29434       -4.59738       -2.85820
H          2.71324       -6.27375       -0.81821
H          1.57948       -7.87857        0.55323
H          1.87722       -5.70144        1.80187
H          0.01168       -4.12097        1.99818
C         -0.71588       -2.10012        0.77205
C          0.01485       -1.23580        1.62321
C         -0.64462       -0.62431        2.68855
C         -1.97383       -0.86749        2.92104
C         -2.70323       -1.73471        2.11444
C         -4.14756       -1.99745        2.47876
C         -4.90784       -2.95649        1.54089
C         -3.97563       -4.00235        0.91894
C         -2.84654       -3.30046        0.15411
C         -2.07239       -2.35534        1.03366
H         -2.17680       -4.02658       -0.31979
H         -4.52883       -4.69210        0.26601
H         -5.38250       -2.38125        0.73705
H         -4.67016       -1.03428        2.53583
H         -2.46853       -0.38675        3.74790
H         -0.09349        0.05198        3.31737
N          1.36991       -0.99595        1.36993
P          1.88397        0.67337        1.12575
C          2.68055        0.88052       -0.46500
C          2.35199        1.96727       -1.24147
C          2.81829        2.04775       -2.53984
C          3.61007        1.03927       -3.06985
C          3.96339       -0.02973       -2.25783
C          3.49859       -0.10979       -0.95728
H          3.74414       -0.95719       -0.33709
H          4.59320       -0.80747       -2.65500
C          4.10142        1.12364       -4.47277
H          2.54950        2.88730       -3.15810
H          1.71023        2.73770       -0.84428
C          2.84812        1.34264        2.47019
C          2.93835        0.62336        3.63676
C          3.65499        1.13457        4.70420
C          4.27555        2.37341        4.60730
C          4.17595        3.08020        3.41585
C          3.45908        2.56726        2.34967
H          3.36903        3.11737        1.42634
H          4.66085        4.03757        3.32962
C          5.06461        2.92022        5.74575
H          3.73369        0.57423        5.62005
H          2.44657       -0.33416        3.70345
H          1.77277       -1.52184        0.60715
H          1.18874       -0.20784       -1.95564
C         -0.60853        1.76421       -2.51856
C         -0.89016        3.09853       -2.34958
C         -0.72694        3.98043       -3.40006
C         -0.29165        3.53062       -4.63894
C         -0.01883        2.17919       -4.79792
C         -0.18169        1.30075       -3.74153
H          0.03692        0.25201       -3.86325
H          0.32947        1.81968       -5.75109
C         -0.08079        4.48418       -5.76297
H         -0.93686        5.02753       -3.26333
H         -1.24492        3.44583       -1.39537
C         -2.42509       -0.06038       -1.28343
C         -2.69951       -0.92034       -2.32108
C         -3.99301       -1.37196       -2.52056
C         -5.01774       -0.96950       -1.67523
C         -4.72307       -0.09114       -0.64061
C         -3.43293        0.36680       -0.45266
H         -3.21502        1.08622        0.31718
H         -5.51318        0.24440        0.00913
C         -6.40604       -1.46216       -1.89279
H         -4.21264       -2.04556       -3.33115
H         -1.89775       -1.23311       -2.97177
Cl        -2.04271        2.94454        0.52099
H          1.38406       -6.77534       -1.83135
H          0.49014       -6.59470        2.38651
H          0.00008       -7.34547        0.02690
H         -1.04764       -5.17354        1.09266
H         -3.54463       -4.62364        1.71376
H         -3.27472       -2.72902       -0.67328
H         -4.16871       -2.39768        3.49964
H         -5.73616       -3.44480        2.07299
H          3.39320        1.66112       -5.10518
H          5.05773        1.64637       -4.51789
H          4.23920        0.13014       -4.90183
H          6.12349        2.68362        5.63242
H          4.96608        4.00504        5.80578
H          4.72667        2.50481        6.69618
H         -0.75495        5.33841       -5.68675
H          0.94264        4.86185       -5.76305
H         -0.26266        4.00421       -6.72558
H         -7.06585       -1.16858       -1.07523
H         -6.81997       -1.05825       -2.81769
H         -6.42613       -2.55084       -1.96153
