64
-97.20896420
Cl        -1.52000       -1.24346       -2.69672
Cl         1.53386       -1.65888       -2.83683
P          1.94593       -0.61901        0.22460
C          2.19966       -2.28504        0.99375
C          3.70986       -0.19229       -0.16795
P         -1.26515       -0.09609        0.45764
C          1.30257        0.60540        1.41726
C         -0.12125        0.85343        1.53014
C         -0.31742        1.94715        2.47184
C          0.99758        2.41751        2.87290
C          2.00092        1.56994        2.25141
H         -1.27287        2.32883        2.83639
H          1.19674        3.22546        3.58145
Pd         0.13740       -1.00839       -1.19837
H          3.08382        1.65220        2.36689
C         -4.96842        2.20478       -0.91129
C         -4.07712        2.80609       -0.04596
C         -2.95221        2.11925        0.37086
C         -2.71265        0.84019       -0.07974
C         -3.60440        0.24027       -0.93978
C         -4.73374        0.92040       -1.35865
H         -5.84625        2.73796       -1.23829
H         -4.25658        3.80946        0.30412
H         -2.25087        2.58727        1.03736
H         -3.40825       -0.75820       -1.29388
H         -5.42575        0.44861       -2.03682
C         -2.68699       -3.88637        2.51707
C         -2.38075       -2.76796        3.26813
C         -1.95514       -1.61123        2.63961
C         -1.83780       -1.58556        1.26934
C         -2.14676       -2.69441        0.51589
C         -2.57236       -3.85177        1.14087
H         -3.01814       -4.78798        3.00614
H         -2.47168       -2.79552        4.34158
H         -1.70739       -0.72955        3.20927
H         -2.05449       -2.64500       -0.55758
H         -2.81381       -4.72321        0.55472
C          4.01739       -0.30951       -1.64505
H          3.87413        0.83623        0.17909
C          4.49783       -1.20213        0.68932
H          4.70025       -0.77341        1.68185
C          3.71456       -2.53223        0.85225
H          5.48322       -1.38412        0.23583
C          1.71756       -2.27737        2.42823
H          1.62308       -3.00505        0.39691
H          4.07907       -3.09242        1.72524
H          3.90958       -3.17839       -0.01591
H          2.26385       -1.53401        3.01229
H          0.65684       -2.02629        2.48934
H          1.86222       -3.24906        2.90634
H          5.06403       -0.07865       -1.85515
H          3.82808       -1.32580       -1.99401
H          3.40044        0.36132       -2.24467
Fe         0.83959        2.50095        0.88205
C          2.17947        3.24427       -0.50341
C          1.35964        4.29997        0.06587
C         -0.03385        3.97927       -0.19661
C         -0.07677        2.72611       -0.92877
C          1.28636        2.26341       -1.09138
H          3.27085        3.20241       -0.49858
H          1.72760        5.19435        0.57407
H         -0.89554        4.59553        0.07100
H         -0.96832        2.23238       -1.31974
H          1.58217        1.36987       -1.64329
