58
-89.85798846
P          1.66339        0.61168        0.59616
C          2.90195        1.74891       -0.02604
C          4.17422        1.29746       -0.29273
C          5.12219        2.17047       -0.79535
C          4.78579        3.48909       -1.03062
C          3.50579        3.93577       -0.76695
C          2.55972        3.06023       -0.26396
H          1.55247        3.39129       -0.06545
H          4.41818        0.26297       -0.11211
C          2.35921       -1.01401        0.90010
C          2.22791       -1.98454       -0.06765
C          2.72701       -3.25379        0.15965
C          3.36418       -3.53712        1.35165
C          3.50994       -2.55467        2.31165
C          3.00684       -1.28641        2.08325
H          3.11690       -0.50746        2.82073
H          1.75708       -1.73777       -1.00598
C          0.76759        1.34772        2.03184
C          0.13252        0.33704        2.97945
C         -0.51774       -0.85296        2.28968
P         -1.50021       -0.41380        0.80282
C         -2.17830       -1.92445        0.10780
C         -1.32278       -2.94890       -0.22795
C         -1.82775       -4.11190       -0.78070
C         -3.18622       -4.23811       -0.99502
C         -4.04001       -3.20563       -0.65967
C         -3.53197       -2.04409       -0.10687
H         -4.18419       -1.22581        0.15162
H         -0.26338       -2.83249       -0.06503
C         -2.81125        0.75579        1.17305
C         -3.32390        1.51404        0.14559
C         -4.33954        2.41863        0.39252
C         -4.84130        2.55243        1.67183
C         -4.33483        1.78028        2.69888
C         -3.31842        0.87610        2.44725
H         -2.92705        0.25804        3.23871
H         -2.93973        1.37159       -0.85140
Pd        -0.09079        0.31726       -0.89952
Cl         1.35003        0.90054       -2.51918
Cl        -1.79995        0.03112       -2.32820
H          0.23688       -1.56004        1.94286
H         -1.16765       -1.41008        2.96838
H          0.88866       -0.03039        3.68906
H         -0.60949        0.85234        3.60715
H          1.46494        2.00488        2.55712
H          0.00400        1.99398        1.59207
H          6.11920        1.82032       -1.00653
H          3.24148        4.96295       -0.95743
H          2.62410       -4.01675       -0.59446
H          4.01396       -2.77507        3.23828
H         -1.16073       -4.91525       -1.04711
H         -5.09939       -3.30185       -0.83201
H         -4.74067        3.01227       -0.41241
H         -4.73236        1.87955        3.69562
H          5.52237        4.16992       -1.42511
H          3.75498       -4.52558        1.53038
H         -3.58051       -5.14277       -1.42841
H         -5.63363        3.25633        1.86803
