111
-148.54873379
P         -2.72667        1.90265       -0.27300
P          0.05161        0.53224        0.31205
C         -1.93272        2.13811        1.34304
C         -0.68557        1.59524        1.56452
C         -3.72210        3.39002       -0.75185
C         -2.97853        4.31932       -1.68577
C         -2.55610        2.85183        2.34733
H         -3.54126        3.25579        2.18435
C         -1.92107        3.02830        3.56475
H         -2.40796        3.58574        4.34824
C         -0.66668        2.48992        3.77871
H         -0.17430        2.62493        4.72766
C         -0.04864        1.76489        2.77600
H          0.92009        1.31622        2.93227
Pd        -1.09732        0.99310       -1.64669
Cl        -2.07927        1.84777       -3.46452
Cl         0.53651       -0.09682       -2.74572
C         -4.99797        2.75669       -1.33388
C         -4.05216        0.60687       -0.29954
H         -2.74071        3.82133       -2.62514
H         -3.57403        5.20269       -1.92716
H         -2.03707        4.65436       -1.24453
H         -4.84701        2.58291       -2.40842
H         -5.84340        3.45806       -1.26189
H         -3.80012       -0.06814       -1.12846
C         -5.32686        1.40890       -0.62956
C         -4.10846       -0.14898        1.01017
H         -3.96133        3.91132        0.18337
H         -5.86872        1.60979        0.30471
H         -6.01228        0.80389       -1.24203
H         -4.90784       -0.89368        1.00850
H         -3.16773       -0.66562        1.20927
H         -4.28991        0.53286        1.84312
C         -1.23921       -3.75903        1.14154
C         -0.70127       -3.41330       -0.12423
C         -0.33444       -2.09724       -0.34029
C         -0.41483       -1.16405        0.65792
C         -0.82359       -1.51956        1.91645
C         -1.20964       -2.81806        2.20247
O         -1.84406       -5.02959        1.33340
C         -0.54693       -4.42653       -1.26831
H          0.00968       -1.77109       -1.30543
H         -0.85464       -0.75854        2.67579
C         -1.62313       -3.17380        3.63884
C          4.57665        0.92353        0.01407
C          3.74619        1.92073       -0.55928
C          2.37344        1.79463       -0.41860
C          1.82694        0.69633        0.19106
C          2.62045       -0.32186        0.65108
C          3.99937       -0.25875        0.54331
O          5.98115        1.12273        0.08616
C          4.31429        3.12833       -1.32126
H          1.70687        2.55332       -0.79154
H          2.14222       -1.17779        1.09496
C          4.83988       -1.46019        1.00345
C         -0.26666       -5.83909       -0.72474
C         -1.82575       -4.42841       -2.11943
C          0.64765       -4.04673       -2.17333
C         -3.12627       -2.90978        3.81538
C         -1.30028       -4.64398        3.96178
C         -0.84745       -2.30857        4.65835
C         -3.23447       -5.05683        1.03563
H          0.61604       -5.83591       -0.08606
H         -1.10208       -6.21104       -0.13686
H         -0.09530       -6.54482       -1.53717
H         -2.01590       -3.43703       -2.53023
H         -1.74063       -5.12780       -2.95065
H         -2.69260       -4.71314       -1.52788
H          0.45873       -3.12891       -2.72796
H          1.55302       -3.90994       -1.58276
H          0.84137       -4.82880       -2.90699
H         -3.35760       -1.86082        3.63181
H         -3.71544       -3.50475        3.12157
H         -3.44922       -3.15373        4.82711
H         -1.53255       -4.87733        5.00057
H         -1.87432       -5.32308        3.33642
H         -0.24337       -4.84997        3.79583
H         -1.03984       -2.64521        5.67682
H          0.22615       -2.37138        4.48217
H         -1.14300       -1.26166        4.60732
H         -3.57217       -4.07409        0.70381
H         -3.42643       -5.79045        0.25283
H         -3.79328       -5.35215        1.92350
C          6.41424        1.76889        1.27640
C          3.31854        3.60677       -2.40264
C          4.56394        4.28122       -0.33764
C          5.62042        2.75869       -2.04785
C          5.18615       -1.29981        2.49120
C          4.05221       -2.77802        0.81805
C          6.12731       -1.58694        0.16894
H          3.76978        4.37272       -3.03288
H          3.01718        2.77941       -3.04470
H          2.42314        4.04252       -1.96204
H          5.28093        3.99681        0.42878
H          4.95385        5.15778       -0.85444
H          3.63939        4.56759        0.16309
H          5.98815        3.59413       -2.64302
H          6.40295        2.48726       -1.34354
H          5.46159        1.91118       -2.71380
H          4.27978       -1.23808        3.09315
H          5.77231       -2.14590        2.84904
H          5.76186       -0.39407        2.66631
H          4.68807       -3.64037        1.01698
H          3.20500       -2.84250        1.49929
H          3.67938       -2.86551       -0.20211
H          6.77716       -0.72670        0.30899
H          5.89061       -1.65728       -0.89221
H          6.69146       -2.47563        0.45075
H          6.94262        2.68740        1.02149
H          5.56110        2.00443        1.91390
H          7.10279        1.11880        1.81585
