59
-75.79791332
Cl         1.54334        0.73925        2.35711
P          1.60894       -0.01425       -0.78696
P         -1.58142       -0.12113       -0.83655
C          0.68456        0.58055       -2.27036
H          0.50194        1.64921       -2.14471
H          1.32856        0.46505       -3.14724
C         -0.60679       -0.18087       -2.41252
H         -0.40594       -1.23028       -2.63974
H         -1.22868        0.20796       -3.22469
C          2.25177       -1.71601       -1.14586
H          1.77771       -2.00222       -2.09377
C          3.22405        0.85657       -0.57438
H          3.47832        0.77568        0.48959
C         -2.45366       -1.70300       -0.41135
H         -2.18781       -1.92128        0.63036
C         -3.03786        1.02070       -0.95110
H         -3.21804        1.16943       -2.02274
C          3.77091       -1.51826       -1.35268
H          4.31539       -2.00347       -0.53386
H          4.10292       -2.04407       -2.26031
C          4.17059       -0.01666       -1.41664
H          4.13298        0.33220       -2.45845
H          5.21348        0.12894       -1.09487
C         -3.94353       -1.33169       -0.51812
H         -4.31395       -1.63362       -1.50733
H         -4.53551       -1.91041        0.20705
C         -4.17360        0.19098       -0.32648
H         -4.22609        0.41915        0.74722
H         -5.14582        0.49829       -0.74132
C          1.87293       -2.70492       -0.04372
H          2.16341       -3.71849       -0.35379
H          0.77840       -2.73034        0.04319
C          3.17137        2.32211       -0.98731
H          4.19461        2.72084       -1.02913
H          2.79466        2.38949       -2.01600
C         -2.04112       -2.86251       -1.31099
H         -2.31350       -2.62084       -2.34681
H         -0.94727       -2.95117       -1.31295
C         -2.82414        2.36695       -0.26747
H         -3.77592        2.91613       -0.25830
H         -2.58341        2.19483        0.78871
C          2.47417       -2.39543        1.32071
H          2.25195       -1.37452        1.62909
H          3.55977       -2.49963        1.32482
H          2.08729       -3.06031        2.09647
C          2.32184        3.16750       -0.05103
H          2.72263        3.15414        0.96426
H          1.30187        2.78754        0.00925
H          2.26756        4.21037       -0.37128
C         -2.66630       -4.18617       -0.89654
H         -2.38811       -4.44939        0.12577
H         -2.35339       -5.00824       -1.54438
H         -3.75619       -4.13903       -0.93083
C         -1.74392        3.21217       -0.91866
H         -0.77558        2.71764       -0.86073
H         -1.95789        3.38531       -1.97500
H         -1.63928        4.18745       -0.43769
Cl        -1.68290        0.60751        2.29531
Pd        -0.02402        0.22871        0.83074
