58
-89.85810027
P          1.65830       -0.16301        0.71124
C          2.55702        1.34508        1.07522
C          3.06289        1.58786        2.33201
C          3.75393        2.76103        2.57715
C          3.93972        3.67753        1.56048
C          3.44437        3.42169        0.29712
C          2.75442        2.24815        0.05600
H          2.38679        2.01226       -0.92983
H          2.92547        0.85730        3.11264
C          2.73235       -1.40941       -0.00262
C          4.07563       -1.15873       -0.16260
C          4.89040       -2.12073       -0.73163
C          4.35101       -3.32547       -1.13817
C          3.00105       -3.57029       -0.97899
C          2.18822       -2.60642       -0.40938
H          1.13008       -2.77868       -0.28794
H          4.47884       -0.20958        0.15144
C          0.79472       -0.87361        2.16941
C         -0.04644        0.12555        2.95038
C         -0.88853        1.05600        2.08780
P         -1.73142        0.23681        0.66802
C         -2.25212       -1.44920        0.98663
C         -2.11188       -2.38322       -0.01487
C         -2.49546       -3.69294        0.20801
C         -3.02526       -4.05382        1.43132
C         -3.17901       -3.10910        2.42733
C         -2.79337       -1.79974        2.20223
H         -2.91775       -1.04870        2.96583
H         -1.72656       -2.07496       -0.97382
C         -3.08871        1.24838        0.07852
C         -2.85612        2.56449       -0.24878
C         -3.89340        3.34632       -0.72562
C         -5.15411        2.80190       -0.87286
C         -5.38064        1.47904       -0.54704
C         -4.34170        0.69968       -0.07104
H         -4.49956       -0.33699        0.17922
H         -1.86320        2.97192       -0.13985
Pd        -0.00232        0.16136       -0.88215
Cl         1.67490        0.27481       -2.37473
Cl        -1.61721        0.33698       -2.43313
H         -1.65393        1.56554        2.67807
H         -0.26662        1.83704        1.64419
H         -0.69808       -0.42279        3.64651
H          0.60457        0.73039        3.59850
H          0.17146       -1.67804        1.77440
H          1.54784       -1.34861        2.80245
H          4.14838        2.95790        3.56050
H          3.59851        4.13029       -0.49994
H          5.94269       -1.92780       -0.86096
H          2.57956       -4.50815       -1.30147
H         -2.38647       -4.42703       -0.57330
H         -3.59979       -3.39040        3.37870
H         -3.71523        4.37660       -0.98644
H         -6.36303        1.05274       -0.66712
H          4.47800        4.59149        1.75198
H          4.98441       -4.07484       -1.58423
H         -3.32588       -5.07387        1.60694
H         -5.96186        3.40958       -1.24700
