171
-217.83599863
P         -1.49075        0.22289       -0.23282
P          1.73253       -0.68828        0.26716
C         -0.64678        0.72587       -1.74522
C          0.88765       -1.91297       -0.75620
C          0.11910       -0.21585       -2.42157
C          0.80528        0.16874       -3.58956
C          0.65228        1.46124       -4.06349
C         -0.12736        2.37782       -3.38972
C         -0.76854        2.00771       -2.22389
C          0.90779       -3.19289       -0.25423
C          0.24143       -4.20973       -0.91001
C         -0.46231       -3.92895       -2.06121
C         -0.51008       -2.64373       -2.57423
C          0.18548       -1.61140       -1.91714
Cl         1.07653       -0.22118        3.49914
Cl        -1.92174       -0.94570        2.88746
C         -1.30945       -2.38712       -3.80359
C          1.67056       -0.79497       -4.32389
H         -0.23241        3.38036       -3.77082
H         -1.35984        2.72584       -1.68261
H          1.44271       -3.39210        0.66276
H          0.26564       -5.21341       -0.51812
H          1.14955        1.74648       -4.97482
H         -0.99574       -4.71363       -2.57094
C         -4.64100       -2.84058       -1.33985
C         -4.45241       -1.73407       -2.15911
C         -3.47224       -0.81777       -1.79535
C         -2.72951       -1.00302       -0.65490
C         -2.93160       -2.10147        0.14007
C         -3.88657       -3.05141       -0.19166
H         -5.40973       -3.54370       -1.59887
H         -3.27089        0.04338       -2.40842
H         -2.35837       -2.20464        1.04359
C         -3.81645        3.77066        1.44099
C         -4.02103        3.36216        0.12918
C         -3.29567        2.27203       -0.33230
C         -2.38128        1.63548        0.47117
C         -2.20172        2.05479        1.76857
C         -2.91712        3.12801        2.28119
H         -4.37978        4.59776        1.83008
H         -3.45052        1.91581       -1.33602
H         -1.51347        1.52922        2.40168
C          5.62652       -2.58879        1.59688
C          5.21749       -2.72049        0.27487
C          4.01596       -2.12910       -0.09302
C          3.26206       -1.44389        0.82789
C          3.67953       -1.32876        2.12878
C          4.87571       -1.89961        2.54153
H          6.55106       -3.03716        1.90853
H          3.65561       -2.21500       -1.10503
H          3.04647       -0.80747        2.82253
C          2.89720        3.33267       -1.46971
C          1.87948        3.30018       -0.52501
C          1.52061        2.06455       -0.00049
C          2.14312        0.91645       -0.43402
C          3.14906        0.97041       -1.36726
C          3.55307        2.18761       -1.90149
H          3.20079        4.28232       -1.87012
H          0.74890        1.99286        0.74416
H          3.62592        0.05311       -1.66511
Pd        -0.14518       -0.35913        1.62086
C         -4.85919       -0.34523       -4.25314
C         -5.36238       -1.50937       -3.37614
C         -6.77880       -1.17337       -2.87673
C         -5.41082       -2.78032       -4.24625
H         -4.87723        0.59771       -3.70744
H         -3.84102       -0.52564       -4.59704
H         -5.48993       -0.22403       -5.13370
H         -7.18756       -1.98882       -2.28071
H         -6.76549       -0.27907       -2.25394
H         -7.45611       -0.99439       -3.71160
H         -6.03619       -2.62413       -5.12515
H         -4.41457       -3.05446       -4.59056
H         -5.82178       -3.62660       -3.69779
C         -2.75771       -5.04279        0.82753
C         -4.08318       -4.26536        0.72656
C         -5.16819       -5.21789        0.18946
C         -4.50490       -3.77797        2.12529
H         -2.86605       -5.91877        1.46665
H         -2.43558       -5.38073       -0.15704
H         -1.96524       -4.42232        1.24444
H         -5.28485       -6.08012        0.84591
H         -6.13455       -4.71776        0.12838
H         -4.90710       -5.59001       -0.80112
H         -5.42909       -3.20325        2.06997
H         -4.66882       -4.61878        2.79887
H         -3.74164       -3.13972        2.56886
C         -4.25001        4.56271       -2.05834
C         -5.00981        4.05634       -0.81735
C         -5.69836        5.25775       -0.14226
C         -6.09162        3.04793       -1.24720
H         -4.92014        5.08764       -2.73886
H         -3.45517        5.25010       -1.76897
H         -3.79573        3.73973       -2.60899
H         -6.27088        4.94287        0.72998
H         -4.96719        6.00195        0.17311
H         -6.38890        5.74457       -0.83086
H         -6.62486        2.66197       -0.37866
H         -6.81906        3.51442       -1.91124
H         -5.65523        2.20027       -1.77390
C         -4.11613        3.33266        4.46741
C         -2.77742        3.57028        3.74576
C         -2.41377        5.06525        3.80758
C         -1.67903        2.77366        4.47945
H         -4.05086        3.61932        5.51684
H         -4.91826        3.91179        4.01119
H         -4.39520        2.28015        4.42104
H         -2.31321        5.39802        4.84054
H         -1.46752        5.25396        3.30250
H         -3.17659        5.68157        3.33374
H         -1.57841        3.11288        5.51016
H         -1.91493        1.71005        4.50678
H         -0.71118        2.89966        3.99485
C          5.17154       -4.66957       -1.29814
C          6.02387       -3.49842       -0.77457
C          7.32927       -4.06669       -0.18576
C          6.38298       -2.55852       -1.94041
H          4.25644       -4.31324       -1.77004
H          5.72159       -5.25369       -2.03570
H          4.88905       -5.33463       -0.48228
H          7.12314       -4.75881        0.63049
H          7.89084       -4.61109       -0.94490
H          7.96997       -3.26888        0.18951
H          6.97564       -3.07857       -2.69279
H          5.48838       -2.17504       -2.42958
H          6.96244       -1.70736       -1.58346
C          6.74163       -1.09596        4.01269
C          5.37193       -1.79897        3.99121
C          5.50374       -3.21442        4.58253
C          4.39630       -0.99232        4.87112
H          7.48425       -1.65672        3.44636
H          6.66940       -0.10014        3.57575
H          7.11032       -0.99117        5.03294
H          5.83563       -3.17455        5.61986
H          4.54575       -3.73326        4.55416
H          6.22427       -3.81155        4.02489
H          4.76271       -0.92611        5.89536
H          4.27865        0.02419        4.49640
H          3.41418       -1.46352        4.90262
C          2.28836        5.45022        0.68748
C          1.23410        4.61389       -0.05924
C          0.04730        4.36167        0.88735
C          0.71314        5.40294       -1.27559
H          3.13059        5.69112        0.03965
H          1.86190        6.38700        1.04582
H          2.67376        4.90321        1.54776
H         -0.71581        3.75725        0.40007
H          0.36699        3.85183        1.79560
H         -0.41718        5.30250        1.18104
H         -0.03103        4.82408       -1.82042
H          0.24521        6.33586       -0.96163
H          1.51726        5.65226       -1.96637
C          5.79335        3.22663       -2.33951
C          4.70469        2.29865       -2.91085
C          4.17218        2.87754       -4.23320
C          5.34297        0.92538       -3.19624
H          5.41163        4.23350       -2.17523
H          6.15959        2.84733       -1.38565
H          6.64051        3.29974       -3.02129
H          3.41277        2.22425       -4.65994
H          3.72436        3.85935       -4.08379
H          4.97385        2.98249       -4.96402
H          4.61689        0.23410       -3.62252
H          6.16416        1.01955       -3.90664
H          5.74445        0.48630       -2.28330
H         -0.82843       -2.82317       -4.68030
H          2.50846       -0.28563       -4.80193
H         -1.43843       -1.31948       -3.98433
H         -2.30253       -2.82774       -3.71213
H          1.10668       -1.31140       -5.10167
H          2.08369       -1.54663       -3.64930
