64
-97.21495972
Cl        -1.58064       -1.12941       -2.61421
Cl         1.42426       -2.06830       -2.73258
P          1.92703       -0.63369        0.26469
C          2.15783       -2.29414        1.04951
C          3.68612       -0.24800       -0.17314
P         -1.25728       -0.07050        0.41035
C          1.28628        0.61143        1.43746
C         -0.13569        0.87781        1.50844
C         -0.34509        1.97075        2.44775
C          0.95508        2.40270        2.92938
C          1.96344        1.57842        2.28594
H         -1.31040        2.36125        2.77533
H          1.14125        3.20017        3.65217
Pd         0.19248       -0.92171       -1.25090
H          3.04327        1.64474        2.43446
C         -5.02546        2.18141       -0.85183
C         -4.05743        2.83693       -0.11808
C         -2.91300        2.16445        0.26793
C         -2.73174        0.84563       -0.08357
C         -3.70094        0.19024       -0.80865
C         -4.84944        0.85654       -1.19680
H         -5.91839        2.70352       -1.15491
H         -4.19245        3.87106        0.15370
H         -2.15511        2.67012        0.83876
H         -3.55230       -0.84298       -1.07723
H         -5.60292        0.34173       -1.77003
C         -2.57601       -3.92232        2.42650
C         -2.32687       -2.79589        3.18660
C         -1.93383       -1.62142        2.56982
C         -1.79169       -1.58590        1.20216
C         -2.04488       -2.70273        0.44004
C         -2.43747       -3.87787        1.05285
H         -2.88158       -4.83778        2.90640
H         -2.43667       -2.83100        4.25806
H         -1.73032       -0.73328        3.14699
H         -1.93859       -2.64437       -0.63136
H         -2.63495       -4.75533        0.45927
C          3.94693       -0.42043       -1.65485
H          3.88001        0.78627        0.14038
C          4.47030       -1.25532        0.69111
H          4.69368       -0.81222        1.67283
C          3.66655       -2.56960        0.88847
H          5.44584       -1.46196        0.22682
C          1.69946       -2.26154        2.49132
H          1.55819       -3.00856        0.46886
H          4.03537       -3.12152        1.76492
H          3.83672       -3.23339        0.02839
H          2.27184       -1.52507        3.05890
H          0.64607       -1.98568        2.56701
H          1.82998       -3.23158        2.97681
H          3.72060       -1.44189       -1.96491
H          3.33178        0.24643       -2.26050
H          4.99303       -0.22560       -1.90138
Fe         0.84190        2.53699        0.87566
C          2.20958        3.33354       -0.42654
C          1.34188        4.38105        0.08355
C         -0.02785        4.01702       -0.23661
C         -0.00491        2.75909       -0.96258
C          1.37661        2.33602       -1.07302
H          3.30026        3.31763       -0.36657
H          1.66266        5.28483        0.60622
H         -0.91548        4.61525       -0.01821
H         -0.86532        2.23944       -1.38925
H          1.72469        1.45150       -1.60714
