115
-277.93380864
P         -1.80276       -0.12394        0.03973
P          1.76965       -0.89984        0.45793
C         -1.58126        1.62808       -0.35688
C         -2.67251        2.45740       -0.21785
H         -3.64755        2.03612       -0.02657
C         -2.49463        3.82495       -0.21117
H         -3.31618        4.47990        0.03005
C         -1.22971        4.36652       -0.37440
C         -0.16779        3.52754       -0.67147
H          0.80888        3.96789       -0.82176
C         -0.34427        2.15854       -0.66002
H          0.50012        1.51108       -0.82393
C         -3.32676       -0.73494       -0.69919
C         -3.89656       -1.87336       -0.17779
H         -3.43573       -2.36364        0.66427
C         -5.05072       -2.38351       -0.73675
H         -5.50804       -3.28123       -0.35221
C         -5.63834       -1.75410       -1.81590
C         -5.05228       -0.61686       -2.33946
H         -5.50478       -0.14718       -3.19852
C         -3.89935       -0.10601       -1.78052
H         -3.42931        0.76648       -2.20530
C         -1.74375       -0.59674        1.80469
C         -1.15932       -1.83698        1.99709
H         -0.76286       -2.37112        1.14943
C         -0.91695       -2.33732        3.27694
C         -1.49854       -1.66954        4.34849
H         -1.36008       -2.05232        5.34583
C         -2.10043       -0.44099        4.16471
H         -2.43103        0.11839        5.02333
C         -2.12791        0.17014        2.91167
C          1.37532       -0.35061        2.15896
C          0.75333        0.88138        2.15684
H          0.51470        1.34424        1.21779
C          0.26889        1.46203        3.32628
C          0.62602        0.87353        4.53321
H          0.29950        1.32139        5.45683
C          1.24845       -0.35857        4.54964
H          1.40278       -0.85873        5.49080
C          1.52420       -1.04647        3.36772
C         -2.23773        1.67713        2.87679
H         -3.04561        1.99422        3.54541
H         -2.56950        1.97801        1.88622
C         -0.89706        2.41176        3.25140
H         -0.66802        3.20664        2.53339
H         -0.99664        2.92826        4.21233
C          0.23451       -3.28070        3.51720
H          0.19919       -4.10175        2.79333
H          0.10050       -3.76633        4.49021
C          1.62605       -2.55217        3.46073
H          2.23509       -2.81948        4.33244
H          2.20545       -2.92957        2.62284
C          2.69989       -2.43212        0.55779
C          2.05897       -3.62903        0.31605
C          3.94262       -2.40836        1.15643
C          2.61521       -4.80520        0.77530
C          4.48772       -3.58541        1.63368
C          3.79418       -4.78040        1.50226
C          2.76488        0.35043       -0.37352
C          2.91577        0.30828       -1.74033
C          3.24061        1.42470        0.34378
C          3.48407        1.37387       -2.40455
H          2.54493       -0.53866       -2.29288
C          3.81042        2.49089       -0.31887
H          3.12202        1.45384        1.41471
C          3.90826        2.48348       -1.69889
H          3.54550        1.39134       -3.48151
H          4.11815        3.37316        0.21978
Pd        -0.00277       -1.14998       -1.06788
Cl        -1.49322       -1.34295       -2.74341
Cl         1.47023       -2.37300       -2.25523
H          5.39255       -3.56851        2.21928
H          4.42508       -1.46314        1.35195
H          2.07943       -5.73854        0.69709
H          1.08788       -3.63855       -0.15205
C         -2.11929        6.73293       -0.14526
C         -0.93215        5.76125        0.11922
C         -0.60786        5.60985        1.63847
F         -1.73649        7.98400        0.15495
F         -2.43619        6.64593       -1.44582
F         -3.17365        6.37560        0.60087
F          0.14757        6.25570       -0.49099
F         -1.63395        4.99812        2.24504
F          0.47758        4.83025        1.74327
F         -0.37857        6.81423        2.17904
C         -7.92091       -1.24550       -2.74251
C         -6.86976       -2.35521       -2.44458
C         -6.44712       -3.13323       -3.72328
F         -9.07298       -1.81931       -3.12218
F         -8.10279       -0.54772       -1.61138
F         -7.45874       -0.43611       -3.70567
F         -7.43210       -3.22821       -1.60405
F         -5.61947       -4.11668       -3.33869
F         -7.53588       -3.64783       -4.31430
F         -5.80494       -2.29993       -4.55541
C          2.93965        4.62153       -2.41956
C          4.22876        3.74822       -2.45050
C          5.46457        4.46810       -1.83698
F          1.95656        3.90236       -2.98062
F          2.61703        4.87772       -1.14465
F          3.14471        5.75654       -3.10366
F          4.50820        3.47083       -3.72680
F          6.47452        3.58545       -1.80980
F          5.78894        5.51796       -2.60768
F          5.18176        4.87078       -0.59023
C          5.57457       -6.06817        2.77233
C          4.06284       -5.94371        2.42495
C          3.16723       -5.70763        3.68404
F          5.96386       -5.00501        3.48920
F          5.77366       -7.19980        3.46572
F          6.25494       -6.10799        1.61716
F          3.67505       -7.08537        1.85131
F          3.46648       -4.51721        4.21991
F          1.89126       -5.68815        3.27331
F          3.36045       -6.69425        4.56931
