111
-148.55274498
P         -2.11502        2.36437        1.34667
P         -0.00980        0.13365        0.52327
C         -1.15636        1.51498        2.62515
C         -0.27169        0.52221        2.26532
C         -1.91904        4.19794        1.46752
C         -1.07250        4.71997        0.32691
C         -1.31994        1.84634        3.95464
H         -2.00381        2.63443        4.22567
C         -0.60562        1.16614        4.92586
H         -0.73341        1.42218        5.96495
C          0.26573        0.15621        4.56503
H          0.81737       -0.37764        5.32127
C          0.43278       -0.16724        3.23025
H          1.10705       -0.95520        2.93246
Pd        -1.61167        1.32659       -0.65392
Cl        -3.13115        2.71184       -1.55777
Cl        -1.10131        0.18120       -2.51476
C         -3.37315        4.70610        1.47301
C         -3.94717        2.21465        1.58053
H         -0.95700        5.80521        0.37878
H         -0.07617        4.27073        0.33385
H         -1.53149        4.48184       -0.63450
H         -3.65798        4.96771        0.44461
H         -3.45085        5.64136        2.04792
H         -4.35769        1.99451        0.58603
C         -4.35548        3.63224        2.02169
C         -4.30890        1.11683        2.55863
H         -1.43786        4.39375        2.43478
H         -4.36736        3.67232        3.11952
H         -5.38814        3.84776        1.70779
H         -3.91169        0.15179        2.23655
H         -3.89821        1.32406        3.54769
H         -5.39160        1.01936        2.66648
C         -0.96886       -4.23898       -0.28652
C         -2.00031       -3.34410        0.09867
C         -1.66053       -2.02884        0.37106
C         -0.37748       -1.58263        0.19272
C          0.59895       -2.41458       -0.28830
C          0.32809       -3.74184       -0.57440
O         -1.22370       -5.63487       -0.34679
C         -3.46789       -3.77904        0.23317
H         -2.39802       -1.32984        0.72698
H          1.58421       -2.00930       -0.43866
C          1.43954       -4.61860       -1.17212
C          4.21030        1.05624       -0.93648
C          3.92922        1.11556        0.45250
C          2.64019        0.83631        0.87475
C          1.64041        0.57470       -0.02585
C          1.88727        0.62525       -1.37241
C          3.14952        0.90496       -1.86495
O          5.55450        1.10771       -1.39223
C          5.00832        1.43377        1.49919
H          2.40291        0.80710        1.92260
H          1.06670        0.43070       -2.03986
C          3.34883        1.01082       -3.38489
C         -3.73395       -4.23280        1.67618
C         -4.41429       -2.60285       -0.10044
C         -3.80308       -4.91482       -0.75068
C          2.39416       -3.76771       -2.04115
C          2.24818       -5.26014       -0.03480
C          0.85370       -5.70934       -2.08702
C         -0.99535       -6.31624        0.88020
H         -3.10098       -5.07476        1.94690
H         -3.52917       -3.42471        2.37813
H         -4.77244       -4.53688        1.80471
H         -5.45038       -2.93829       -0.13895
H         -4.36141       -1.81626        0.65034
H         -4.16621       -2.16921       -1.06893
H         -4.86010       -5.17544       -0.70353
H         -3.57198       -4.61678       -1.77281
H         -3.23291       -5.81341       -0.52863
H          3.10521       -4.40167       -2.57035
H          1.83478       -3.19968       -2.78388
H          2.97492       -3.06917       -1.44048
H          2.69209       -4.49485        0.60155
H          1.61731       -5.88656        0.59163
H          3.05293       -5.88002       -0.42923
H          0.23064       -6.40316       -1.52809
H          0.23935       -5.26427       -2.86898
H          1.64461       -6.28758       -2.56406
H         -0.65812       -5.61722        1.64659
H         -1.91636       -6.79802        1.20800
H         -0.23953       -7.08784        0.73457
C          6.17033       -0.16794       -1.51952
C          5.68727        0.12857        1.94116
C          6.05548        2.41147        0.93552
C          4.38323        2.10939        2.74107
C          4.49317        1.98084       -3.73039
C          3.64356       -0.38383       -3.95724
C          2.07279        1.56250       -4.06186
H          6.44926        0.32089        2.69604
H          4.95758       -0.56077        2.36550
H          6.16488       -0.37085        1.10165
H          6.78439        2.68713        1.69722
H          6.60021        1.97251        0.10325
H          5.57671        3.32258        0.57829
H          3.74772        1.42218        3.29772
H          5.15843        2.45270        3.42578
H          3.78519        2.97343        2.45254
H          4.31038        2.96113       -3.29154
H          5.44709        1.62039       -3.35403
H          4.59011        2.10453       -4.80870
H          3.79115       -0.34008       -5.03597
H          4.53813       -0.81280       -3.51188
H          2.81546       -1.06320       -3.75798
H          1.24678        0.85535       -4.00558
H          2.25041        1.76221       -5.11824
H          1.75748        2.49433       -3.59327
H          5.48321       -0.95557       -1.20748
H          6.46405       -0.33201       -2.55611
H          7.06771       -0.20277       -0.90193
