64
-97.20729811
Cl        -1.50271       -1.43166       -2.59136
Cl         1.62721       -1.45218       -2.92885
P          1.95262       -0.63309        0.29707
C          2.20726       -2.30245        1.05403
C          3.71707       -0.16824       -0.03647
P         -1.28154       -0.14152        0.36682
C          1.23788        0.57243        1.46790
C         -0.18886        0.82681        1.47684
C         -0.45782        1.92158        2.39856
C          0.82894        2.39610        2.88046
C          1.87462        1.53667        2.34994
H         -1.43015        2.36892        2.61013
H          0.97991        3.22134        3.58081
Pd         0.23602       -0.98413       -1.23648
H          2.94685        1.62639        2.53433
C         -4.91313        2.37840       -0.74402
C         -4.18028        1.76487       -1.74028
C         -3.09043        0.98264       -1.40891
C         -2.72648        0.82904       -0.09045
C         -3.46904        1.42093        0.90621
C         -4.56395        2.20147        0.58020
H         -5.76502        2.98730       -0.99959
H         -4.46154        1.88749       -2.77339
H         -2.53593        0.46474       -2.17258
H         -3.19946        1.25683        1.93701
H         -5.14346        2.66884        1.35938
C         -2.70027       -3.96298        2.36916
C         -2.34250       -2.87415        3.14070
C         -1.91591       -1.70787        2.53086
C         -1.84878       -1.64321        1.15844
C         -2.20870       -2.72217        0.38597
C         -2.63563       -3.88922        0.99128
H         -3.03243       -4.87200        2.84360
H         -2.39446       -2.93210        4.21553
H         -1.63006       -0.84880        3.11689
H         -2.15013       -2.64028       -0.68749
H         -2.91640       -4.73746        0.38885
C          4.03958       -0.18085       -1.51417
H          3.86443        0.83691        0.37992
C          4.50704       -1.22169        0.76521
H          4.72572       -0.83915        1.77300
C          3.71791       -2.55360        0.88038
H          5.48538       -1.38953        0.29167
C          1.75444       -2.29633        2.49785
H          1.61488       -3.01671        0.46579
H          4.09078       -3.15427        1.72254
H          3.89575       -3.16109       -0.01896
H          2.31579       -1.55683        3.07249
H          0.69631       -2.04059        2.58085
H          1.90444       -3.26992        2.97046
H          5.08455        0.07810       -1.69859
H          3.86674       -1.17323       -1.93366
H          3.41684        0.52225       -2.06978
Fe         0.77655        2.46539        0.86954
C          2.09757        3.16369       -0.51246
C          1.35639        4.23226        0.13877
C         -0.05918        4.04857       -0.13851
C         -0.19240        2.82022       -0.89956
C          1.13268        2.28305       -1.14234
H          3.18419        3.05261       -0.53375
H          1.79521        5.07121        0.68485
H         -0.87494        4.69548        0.19218
H         -1.12867        2.39925       -1.26652
H          1.36208        1.40493       -1.74864
