111
-148.55186217
P         -2.49218        2.18484        1.11379
P          0.06767        0.38858        0.55181
C         -1.42456        1.66349        2.48740
C         -0.29448        0.91749        2.23295
C         -3.19720        3.86391        1.45565
C         -2.93139        4.82425        0.31776
C         -1.74272        2.00295        3.78729
H         -2.63378        2.57560        3.98582
C         -0.92392        1.59669        4.82696
H         -1.17313        1.86123        5.84163
C          0.21015        0.85164        4.56666
H          0.84632        0.53347        5.37612
C          0.52440        0.50814        3.26408
H          1.39817       -0.08472        3.04258
Pd        -1.32814        1.62012       -0.81050
Cl        -2.91384        2.68963       -1.97992
Cl        -0.09761        1.03870       -2.60028
C         -4.69344        3.57104        1.69343
C         -4.04806        1.19172        0.98541
H         -3.30729        5.82552        0.54106
H         -1.86277        4.90249        0.10446
H         -3.42557        4.48552       -0.59358
H         -5.29286        4.42986        1.35782
H         -4.89035        3.47713        2.77151
H         -4.00595        0.65822        0.02576
C         -5.14971        2.27109        0.97306
C         -4.15486        0.20995        2.13173
H         -2.71346        4.22580        2.37295
H         -6.06263        1.87012        1.43709
H         -5.42440        2.50988       -0.06500
H         -4.18285        0.73541        3.08806
H         -5.06145       -0.39569        2.05960
H         -3.29653       -0.46521        2.15273
C         -1.08211       -3.96176       -0.12883
C         -1.23217       -3.40335        1.16718
C         -0.87948       -2.07711        1.35492
C         -0.47662       -1.29935        0.30112
C         -0.44979       -1.80258       -0.97226
C         -0.77922       -3.12126       -1.23016
O         -1.18776       -5.36560       -0.31601
C         -1.72090       -4.22433        2.37072
H         -0.89253       -1.63853        2.33680
H         -0.15733       -1.13907       -1.76735
C         -0.75444       -3.62341       -2.68161
C          4.41986        0.62570       -0.74728
C          3.92732       -0.54977       -0.12457
C          2.59810       -0.57642        0.26272
C          1.79737        0.52697        0.12197
C          2.29894        1.70202       -0.37196
C          3.61772        1.79538       -0.78592
O          5.69550        0.61788       -1.37164
C          4.78682       -1.80547        0.08843
H          2.15832       -1.47674        0.65680
H          1.63198        2.54209       -0.46138
C          4.13457        3.13678       -1.32815
C         -2.69405       -5.33354        1.93108
C         -0.51006       -4.83694        3.09061
C         -2.48827       -3.32697        3.36787
C          0.66304       -4.10689       -3.02471
C         -1.77067       -4.75950       -2.89549
C         -1.13789       -2.48625       -3.65651
C          0.04412       -6.06046       -0.16533
H         -2.20340       -6.06153        1.29004
H         -3.09274       -5.86923        2.79223
H         -3.53153       -4.91134        1.37664
H         -0.82400       -5.41919        3.95657
H          0.05044       -5.49357        2.42922
H          0.16817       -4.05685        3.43582
H         -2.92420       -3.92433        4.16833
H         -1.83685       -2.59133        3.83702
H         -3.29922       -2.79950        2.86705
H          0.97088       -4.92053       -2.37208
H          0.71662       -4.46136       -4.05371
H          1.38400       -3.29793       -2.90837
H         -1.52139       -5.63284       -2.29810
H         -2.77201       -4.43641       -2.61290
H         -1.79635       -5.07093       -3.93943
H         -1.24877       -2.86727       -4.67136
H         -2.08275       -2.02819       -3.36551
H         -0.37708       -1.70800       -3.68959
H         -0.04480       -6.79375        0.63606
H          0.28056       -6.59060       -1.08777
H          0.84893       -5.36237        0.06888
C          5.66790        0.21124       -2.73438
C          4.32715       -2.57064        1.35085
C          4.63799       -2.73356       -1.12702
C          6.26661       -1.43887        0.30162
C          3.86339        3.20790       -2.83885
C          3.41122        4.31802       -0.64225
C          5.63844        3.30933       -1.04834
H          5.01194       -3.38717        1.57883
H          4.29659       -1.90814        2.21550
H          3.33930       -3.01015        1.22031
H          3.59714       -3.02729       -1.26159
H          4.96325       -2.24226       -2.04096
H          5.23070       -3.63935       -1.00184
H          6.68957       -0.96386       -0.57981
H          6.37381       -0.74749        1.13678
H          6.86309       -2.32526        0.51612
H          4.37607        2.40931       -3.36948
H          2.79747        3.10901       -3.04320
H          4.20062        4.15790       -3.25247
H          2.36064        4.36669       -0.92461
H          3.47246        4.23286        0.44236
H          3.86290        5.26727       -0.92954
H          6.22800        2.55811       -1.56769
H          5.84342        3.21641        0.01762
H          5.98845        4.28745       -1.37738
H          4.64512       -0.00558       -3.04546
H          6.07810        1.00326       -3.36072
H          6.28357       -0.67857       -2.86448
