87
-129.18706188
P         -1.66872       -0.38316       -0.18915
P          1.60703        0.37609       -0.13201
C         -1.40381        0.92438       -1.40433
C          1.39277       -0.67588       -1.57348
C         -0.41580        0.84492       -2.38263
C         -0.20563        1.95322       -3.22591
C         -0.99851        3.07835       -3.07882
C         -1.97858        3.13506       -2.11212
C         -2.17241        2.05606       -1.27267
C          2.18689       -1.78949       -1.69824
C          2.03337       -2.63384       -2.77996
C          1.07663       -2.35534       -3.73275
C          0.26235       -1.24033       -3.62424
C          0.42509       -0.37420       -2.52496
Cl         1.21232        1.07805        2.97025
Cl        -1.35860       -1.03198        2.97220
H         -2.58417        4.02003       -2.00470
H         -2.92761        2.09900       -0.50540
H          2.93069       -1.99996       -0.94771
H          2.65446       -3.50941       -2.87490
H         -0.83464        3.92099       -3.72897
H          0.94847       -3.01439       -4.57462
C         -1.19027       -4.59865       -1.81272
C         -0.49734       -4.22409       -0.66938
C         -0.68191       -2.93916       -0.17539
C         -1.50560       -2.05085       -0.82740
C         -2.19066       -2.42942       -1.95781
C         -2.03465       -3.71146       -2.45145
H         -1.06316       -5.59507       -2.20016
C          0.40828       -5.17305        0.03314
H         -0.18301       -2.63770        0.72950
H         -2.83057       -1.71736       -2.45470
H         -2.56514       -4.01450       -3.33920
C         -5.64251        0.17894        1.96378
C         -5.49351       -0.84462        1.04900
C         -4.28811       -1.01419        0.39430
C         -3.24190       -0.16154        0.65883
C         -3.38835        0.85860        1.57075
C         -4.59483        1.04843        2.23349
H         -6.57718        0.30682        2.48277
H         -6.31383       -1.51443        0.84924
H         -4.15536       -1.81444       -0.31507
H         -2.55499        1.50697        1.78603
C         -4.73492        2.12902        3.24698
C          5.06632       -1.13562        2.41760
C          5.16497        0.08843        1.78581
C          4.12095        0.54806        1.00545
C          2.98839       -0.21829        0.86245
C          2.88681       -1.43671        1.49374
C          3.92900       -1.91852        2.27589
H          5.87415       -1.49099        3.03437
H          6.05204        0.68852        1.90601
H          4.17956        1.50658        0.51658
H          1.98771       -2.01999        1.38710
C          3.79846       -3.22112        2.98350
C          2.10218        4.72498       -1.33716
C          2.89912        3.75605       -1.91495
C          2.76018        2.43329       -1.53713
C          1.82938        2.09555       -0.58307
C          1.04247        3.05886        0.00370
C          1.16834        4.39254       -0.36531
H          2.19832        5.75351       -1.64067
H          3.62151        4.02808       -2.66697
H          3.35964        1.66005       -1.99166
H          0.31950        2.77530        0.74981
C          0.28290        5.42773        0.23320
Pd        -0.08294        0.04380        1.46122
C          0.85218        1.94388       -4.27452
C         -0.76633       -0.98487       -4.67047
H          1.39234        2.89152       -4.28970
H          1.58275        1.15362       -4.09878
H          0.41848        1.78969       -5.26324
H         -1.49559       -0.24358       -4.34198
H         -0.30449       -0.62020       -5.58877
H         -1.31220       -1.89850       -4.91003
H          1.33131       -4.67665        0.33681
H         -0.06924       -5.57336        0.92851
H          0.67930       -6.01229       -0.60891
H         -4.37109        1.79463        4.21950
H         -4.16279        3.01238        2.95948
H         -5.77678        2.43135        3.36185
H          3.23237       -3.93694        2.38560
H          4.77596       -3.65972        3.18881
H          3.27939       -3.09286        3.93436
H          0.00776        5.16486        1.25568
H          0.77641        6.40016        0.26204
H         -0.63571        5.53204       -0.34593
