111
-148.55352662
P         -2.47438        2.18355        0.52185
P          0.09312        0.32058        0.47944
C         -1.42383        2.06790        1.98930
C         -0.31663        1.24777        1.97289
C         -2.71614        3.94109        0.00410
C         -1.80908        4.30171       -1.15290
C         -1.72853        2.79829        3.11983
H         -2.58627        3.45126        3.11628
C         -0.92952        2.69037        4.24475
H         -1.16746        3.25743        5.12988
C          0.17093        1.85525        4.23357
H          0.79187        1.76798        5.10997
C          0.47876        1.13355        3.09405
H          1.33527        0.47963        3.07398
Pd        -1.52637        0.84851       -1.09984
Cl        -3.20975        1.46539       -2.44730
Cl        -0.49524       -0.49122       -2.57083
C         -4.22061        3.99509       -0.31613
C         -4.23706        1.68352        0.80402
H         -1.95090        5.33961       -1.46303
H         -0.75702        4.16612       -0.89006
H         -2.01440        3.66891       -2.01812
H         -4.36251        3.75738       -1.37953
H         -4.60390        5.01896       -0.18792
H         -4.45891        0.94186        0.02513
C         -5.02408        2.98536        0.55144
C         -4.44744        1.09649        2.18511
H         -2.48888        4.55674        0.88423
H         -5.26224        3.44748        1.51914
H         -5.99627        2.75943        0.08814
H         -3.76635        0.26547        2.37676
H         -4.26537        1.84496        2.95749
H         -5.47046        0.73565        2.31446
C         -0.87167       -4.10114        0.97886
C         -1.89337       -3.12464        1.10572
C         -1.53933       -1.78961        0.99387
C         -0.25855       -1.42456        0.66704
C          0.69497       -2.37138        0.39677
C          0.41304       -3.72160        0.51272
O         -1.11324       -5.44536        1.36739
C         -3.36614       -3.48477        1.35518
H         -2.26634       -1.01143        1.14983
H          1.66970       -2.04115        0.08640
C          1.49812       -4.75003        0.15931
C          4.31261        1.21676       -1.00923
C          3.18738        1.60873       -1.77750
C          1.92515        1.34793       -1.27164
C          1.75667        0.65470       -0.10142
C          2.84199        0.18294        0.59158
C          4.13316        0.41650        0.14755
O          5.61402        1.64849       -1.38029
C          3.31223        2.31107       -3.13904
H          1.04792        1.67949       -1.79882
H          2.66781       -0.37878        1.49217
C          5.31652       -0.17125        0.93327
C         -4.28875       -2.52231        0.57349
C         -3.69355       -4.90633        0.86243
C         -3.66835       -3.36598        2.85627
C          2.42180       -4.20490       -0.95361
C          2.34397       -5.04490        1.40692
C          0.87343       -6.05229       -0.37396
C         -0.86695       -5.69043        2.74612
H         -4.02076       -2.50345       -0.48259
H         -5.32993       -2.83447        0.65040
H         -4.23057       -1.50573        0.95505
H         -3.42920       -5.01784       -0.18860
H         -3.14579       -5.65804        1.42475
H         -4.75582       -5.12399        0.97047
H         -3.04068       -4.04004        3.43599
H         -3.48060       -2.35232        3.20936
H         -4.70969       -3.60903        3.06582
H          3.11196       -4.97552       -1.29613
H          1.83820       -3.87225       -1.81164
H          3.02463       -3.36797       -0.60585
H          3.14195       -5.75136        1.17978
H          2.79938       -4.13177        1.78934
H          1.73499       -5.47032        2.20159
H          1.64324       -6.75627       -0.68897
H          0.27091       -6.54254        0.38703
H          0.23021       -5.84696       -1.22899
H         -0.19088       -6.53939        2.84861
H         -0.42020       -4.81204        3.21367
H         -1.80182       -5.93077        3.25182
C          5.98892        2.90458       -0.82902
C          4.58181        1.85785       -3.88248
C          2.11066        1.95629       -4.04592
C          3.33441        3.83236       -2.92807
C          6.48284       -0.52527       -0.00736
C          5.77746        0.84288        1.99093
C          4.90737       -1.47748        1.65105
H          5.48140        2.14250       -3.34269
H          4.59125        0.77466       -3.99904
H          4.63675        2.30646       -4.87403
H          1.97851        0.87653       -4.10958
H          1.18330        2.39259       -3.67793
H          2.26244        2.33542       -5.05617
H          3.41352        4.35727       -3.87973
H          2.42236        4.16585       -2.43343
H          4.17543        4.13256       -2.30769
H          7.29614       -1.00231        0.53896
H          6.15161       -1.20899       -0.78830
H          6.88686        0.36141       -0.48961
H          4.96510        1.07866        2.67805
H          6.60940        0.44847        2.57384
H          6.10148        1.77295        1.53045
H          4.18738       -1.29327        2.44699
H          5.77372       -1.95457        2.10873
H          4.47068       -2.18514        0.94767
H          6.89913        2.78760       -0.24104
H          6.19257        3.61158       -1.63299
H          5.19266        3.29471       -0.19386
