111
-148.54932909
P         -2.56939        2.00879        0.79432
P          0.13355        0.38970        0.41069
C         -1.47047        1.73654        2.21147
C         -0.26887        1.08845        2.02393
C         -3.43954        3.63882        0.92793
C         -2.80311        4.70803        0.06739
C         -1.82560        2.17106        3.47281
H         -2.77620        2.65519        3.62348
C         -0.96831        1.96605        4.54019
H         -1.24561        2.30580        5.52472
C          0.23995        1.32487        4.34655
H          0.90617        1.16291        5.17788
C          0.58813        0.87912        3.08441
H          1.51775        0.35680        2.91912
Pd        -1.34788        1.39243       -1.06829
Cl        -2.63598        2.66322       -2.38378
Cl        -0.03889        0.59889       -2.72016
C         -4.88728        3.27450        0.55371
C         -4.02656        0.86656        0.73523
H         -2.84546        4.43658       -0.98714
H         -3.31497        5.66667        0.17839
H         -1.75177        4.85193        0.32699
H         -5.01111        3.39179       -0.53181
H         -5.59335        3.98419        1.01145
H         -4.05021        0.45652       -0.28340
C         -5.22361        1.81071        0.95971
C         -3.89655       -0.24185        1.75721
H         -3.38934        3.92783        1.98513
H         -5.50177        1.78178        2.02212
H         -6.10704        1.44562        0.41439
H         -3.00960       -0.85041        1.56908
H         -3.80442        0.16903        2.76434
H         -4.76719       -0.90164        1.74497
C         -1.23291       -3.96384        0.34475
C         -1.04411       -3.30094        1.58430
C         -0.59112       -1.99259        1.56666
C         -0.39737       -1.32491        0.38568
C         -0.67751       -1.93080       -0.81015
C         -1.13178       -3.23591       -0.86777
O         -1.49602       -5.35941        0.31792
C         -1.30938       -3.98411        2.93531
H         -0.38870       -1.47062        2.48477
H         -0.53843       -1.35743       -1.70868
C         -1.49790       -3.83896       -2.23318
C          4.53054        0.86307       -0.68058
C          3.86342        1.89884        0.02207
C          2.53272        1.71253        0.36021
C          1.85877        0.58122       -0.02037
C          2.47098       -0.37506       -0.78690
C          3.79416       -0.24428       -1.17332
O          5.93795        0.92029       -0.86371
C          4.57031        3.19787        0.43965
H          2.00086        2.45042        0.93586
H          1.89330       -1.23112       -1.08826
C          4.40426       -1.29686       -2.11224
C         -1.70846       -2.94469        4.00814
C         -2.47359       -4.98555        2.82734
C         -0.03399       -4.70173        3.40185
C         -0.25634       -4.50288       -2.84719
C         -2.63754       -4.86486       -2.09733
C         -1.99559       -2.73878       -3.19915
C         -0.32956       -6.16880        0.23851
H         -2.54314       -2.33370        3.66613
H         -2.01331       -3.43907        4.93022
H         -0.87960       -2.28462        4.25960
H         -3.37094       -4.49168        2.45588
H         -2.23479       -5.79935        2.14706
H         -2.70462       -5.42420        3.79774
H          0.27387       -5.46233        2.68860
H          0.78850       -3.99477        3.50832
H         -0.18919       -5.18705        4.36512
H          0.12763       -5.29234       -2.20568
H         -0.48731       -4.93992       -3.81830
H          0.54006       -3.77289       -2.98745
H         -2.94091       -5.24518       -3.07240
H         -2.33555       -5.71585       -1.49199
H         -3.50775       -4.41075       -1.62453
H         -2.37968       -3.17702       -4.11990
H         -2.79772       -2.15746       -2.74513
H         -1.19524       -2.05628       -3.48101
H         -0.36249       -6.77043       -0.66961
H          0.56621       -5.54647        0.23082
H         -0.29585       -6.84488        1.09270
C          6.68367        0.28210        0.16516
C          5.21586        3.00393        1.81999
C          5.63748        3.60319       -0.59343
C          3.56220        4.36611        0.52745
C          5.00271       -2.43996       -1.27899
C          3.32011       -1.88231       -3.04626
C          5.48438       -0.67372       -3.01496
H          5.71640        3.91443        2.14848
H          4.46310        2.74477        2.56423
H          5.95200        2.20396        1.80180
H          5.19537        3.69643       -1.58479
H          6.09232        4.55861       -0.33316
H          6.43373        2.86517       -0.65150
H          2.99285        4.45697       -0.39724
H          2.86219        4.23337        1.35106
H          4.07865        5.31072        0.69655
H          5.78442       -2.07749       -0.61579
H          4.23628       -2.90922       -0.66248
H          5.43498       -3.20645       -1.92174
H          2.60200       -2.48878       -2.49697
H          2.77760       -1.08690       -3.55673
H          3.76692       -2.52446       -3.80487
H          5.86893       -1.40307       -3.72741
H          6.32598       -0.30767       -2.43221
H          5.07635        0.16641       -3.57595
H          7.28302       -0.52180       -0.26169
H          7.35975        1.00219        0.62586
H          6.01440       -0.12577        0.92370
