171
-217.83638280
P         -1.72567        0.65198       -0.11808
P          1.47322       -0.26607       -0.34501
C         -1.00624        1.75810       -1.36002
C          0.68832       -0.97243       -1.80541
C         -0.17671        1.30197       -2.38261
C          0.50722        2.24233       -3.17705
C          0.28802        3.59286       -2.96969
C         -0.56821        4.02867       -1.98223
C         -1.19914        3.10663       -1.17058
C          0.79771       -2.31913       -2.05682
C          0.21744       -2.87212       -3.18094
C         -0.49554       -2.06985       -4.04482
C         -0.65326       -0.71741       -3.79318
C         -0.03599       -0.15126       -2.66008
Cl         1.82569        1.19334        2.63020
Cl        -1.23742        0.58576        3.17582
C         -1.45886        0.11790       -4.72645
C          1.47825        1.82080       -4.22472
H         -0.73005        5.08353       -1.83094
H         -1.84838        3.44607       -0.38109
H          1.32167       -2.95152       -1.36166
H          0.31795       -3.92633       -3.38093
H          0.79978        4.30550       -3.59435
H         -0.94230       -2.49438       -4.92763
C         -2.89747       -3.54881       -1.31760
C         -1.94297       -3.38172       -0.32230
C         -1.59787       -2.08347        0.03101
C         -2.16391       -1.01220       -0.61869
C         -3.09509       -1.19523       -1.61092
C         -3.49219       -2.47711       -1.97199
H         -3.19807       -4.54588       -1.58199
H         -0.87991       -1.89883        0.81039
H         -3.51019       -0.32806       -2.09591
C         -5.13328        2.61566        2.14032
C         -5.41454        1.53954        1.30794
C         -4.35653        0.95676        0.62164
C         -3.07853        1.43800        0.76670
C         -2.82058        2.50014        1.59731
C         -3.84670        3.11251        2.30454
H         -5.93806        3.07195        2.68695
H         -4.52027        0.11104       -0.02131
H         -1.80127        2.82468        1.71907
C          3.73238       -3.58452        1.82898
C          2.89427       -2.76200        2.57070
C          2.21044       -1.75906        1.89981
C          2.37117       -1.56344        0.54884
C          3.23242       -2.36922       -0.15682
C          3.91543       -3.40754        0.46303
H          4.25927       -4.37514        2.32728
H          1.56334       -1.10920        2.45782
H          3.35967       -2.20493       -1.21293
C          4.36230        3.00274       -1.57178
C          3.32432        3.31456       -0.70303
C          2.45736        2.29433       -0.33630
C          2.63143        1.01944       -0.81461
C          3.65986        0.73035       -1.67636
C          4.54863        1.72055       -2.07602
H          5.04395        3.78335       -1.85244
H          1.63544        2.49170        0.32801
H          3.76842       -0.27410       -2.04577
Pd         0.07857        0.60599        1.34254
C         -0.22718       -4.20938        1.36203
C         -1.33993       -4.60924        0.37585
C         -0.73175       -5.56110       -0.67128
C         -2.44966       -5.33650        1.15552
H          0.57587       -3.68027        0.85104
H         -0.61715       -3.56784        2.15139
H          0.20730       -5.09031        1.83416
H         -0.29567       -6.43771       -0.19246
H         -1.48246       -5.90884       -1.37953
H          0.05600       -5.06253       -1.23400
H         -2.89779       -4.67290        1.89488
H         -3.24099       -5.67721        0.48863
H         -2.05372       -6.20695        1.67836
C         -5.75988       -3.46905       -2.35552
C         -4.58258       -2.73319       -3.02202
C         -4.00904       -3.59614       -4.16017
C         -5.11186       -1.41790       -3.62591
H         -6.16456       -2.88081       -1.53216
H         -6.56347       -3.64743       -3.06981
H         -5.44879       -4.43355       -1.95590
H         -3.64652       -4.55400       -3.78924
H         -4.76712       -3.79674       -4.91707
H         -3.17710       -3.08803       -4.64532
H         -5.55303       -0.78294       -2.85834
H         -4.31399       -0.86173       -4.11612
H         -5.88168       -1.61665       -4.37142
C         -7.34125        0.54869        2.56844
C         -6.85369        1.01858        1.18574
C         -6.94739       -0.16829        0.20618
C         -7.76282        2.14876        0.66922
H         -8.35536        0.15356        2.51132
H         -6.69373       -0.23695        2.95737
H         -7.34221        1.36728        3.28720
H         -6.33212       -1.00345        0.54055
H         -7.97388       -0.52624        0.12818
H         -6.62325        0.12286       -0.79250
H         -7.77380        2.99420        1.35610
H         -7.41612        2.50876       -0.29929
H         -8.78918        1.80115        0.55258
C         -4.41837        5.49717        2.83565
C         -3.58545        4.27726        3.26934
C         -2.09719        4.68145        3.28155
C         -3.98525        3.85041        4.69329
H         -4.16306        5.79499        1.81880
H         -5.48530        5.27913        2.86274
H         -4.23570        6.34748        3.49249
H         -1.46909        3.85502        3.61385
H         -1.76595        4.99094        2.29037
H         -1.92851        5.51620        3.96161
H         -5.04398        3.59990        4.74861
H         -3.41741        2.97337        5.00348
H         -3.79255        4.64909        5.40932
C          3.24401       -1.57977        4.74852
C          2.74117       -2.88091        4.09489
C          3.55469       -4.06084        4.65975
C          1.25959       -3.09546        4.45564
H          3.17096       -1.63392        5.83443
H          4.28592       -1.39582        4.48773
H          2.66130       -0.72085        4.41763
H          3.22979       -5.00520        4.22326
H          4.61889       -3.93494        4.46143
H          3.42808       -4.13549        5.73975
H          0.88602       -4.01888        4.01518
H          1.12884       -3.16404        5.53537
H          0.63919       -2.27406        4.09924
C          5.54011       -5.36845        0.48785
C          4.80065       -4.33435       -0.38265
C          5.84929       -3.49685       -1.13866
C          3.91357       -5.08623       -1.39255
H          6.17847       -6.00421       -0.12560
H          6.17414       -4.87714        1.22573
H          4.83736       -6.01695        1.01066
H          6.45065       -2.91260       -0.44242
H          6.52082       -4.13689       -1.71069
H          5.37724       -2.80720       -1.83694
H          3.41120       -4.39448       -2.06793
H          4.50568       -5.77252       -1.99762
H          3.14724       -5.66449       -0.87641
C          3.01996        5.73004       -1.31883
C          3.17790        4.73975       -0.15108
C          4.43382        5.09427        0.66535
C          1.94633        4.86922        0.76859
H          2.90328        6.74966       -0.95202
H          3.88758        5.71013       -1.97710
H          2.14190        5.48479       -1.91462
H          4.56951        4.38946        1.48548
H          5.32964        5.06362        0.04620
H          4.35442        6.09513        1.08929
H          2.02822        4.20691        1.63023
H          1.84896        5.88747        1.14455
H          1.02892        4.62650        0.23344
C          6.50051        2.60619       -3.45048
C          5.71719        1.35681       -3.00355
C          5.18342        0.64700       -4.26295
C          6.67458        0.41740       -2.24876
H          6.95620        3.11133       -2.59917
H          7.30242        2.33446       -4.13688
H          5.84892        3.31257       -3.96473
H          4.66064       -0.27499       -4.01214
H          4.49056        1.29006       -4.80444
H          5.99897        0.39002       -4.93872
H          6.16462       -0.49325       -1.93782
H          7.51963        0.13272       -2.87532
H          7.06423        0.90240       -1.35397
H         -0.82655        0.56596       -5.49371
H          1.08554        2.01427       -5.22383
H         -1.96792        0.92304       -4.19432
H         -2.22077       -0.47798       -5.23089
H          1.71193        0.75788       -4.15135
H          2.41497        2.37057       -4.12081
