58
-89.86266585
P          1.76387       -0.18786        0.86622
C          1.89927        1.59344        0.64439
C          3.02187        2.17499        0.10095
C          3.06256        3.54435       -0.08944
C          1.97399        4.32159        0.25571
C          0.84263        3.73257        0.78396
C          0.80825        2.36410        0.97561
H         -0.08499        1.88617        1.33725
H          3.85368        1.55601       -0.19117
C          3.30088       -1.05227        0.51693
C          3.30409       -2.17213       -0.28284
C          4.48850       -2.84606       -0.51997
C          5.66143       -2.39961        0.05581
C          5.65175       -1.28564        0.87171
C          4.46533       -0.61364        1.10647
H          4.44009        0.24760        1.75564
H          2.38120       -2.51063       -0.72595
C          1.30467       -0.58811        2.60925
C         -0.05555       -1.24829        2.76672
C         -1.22331       -0.30064        2.52875
P         -1.67606       -0.11742        0.74728
C         -2.91560       -1.36745        0.39452
C         -2.54059       -2.68273        0.24385
C         -3.49814       -3.64208       -0.03311
C         -4.82403       -3.27599       -0.15642
C         -5.19510       -1.95447       -0.00488
C         -4.23532       -0.99743        0.27148
H         -4.50793        0.03936        0.38676
H         -1.50045       -2.95345        0.33031
C         -2.33412        1.52668        0.41658
C         -2.77941        2.33133        1.44181
C         -3.25121        3.60153        1.16340
C         -3.28033        4.05659       -0.14000
C         -2.84699        3.24215       -1.16687
C         -2.37656        1.97389       -0.88397
H         -2.05095        1.31783       -1.67401
H         -2.76440        1.96632        2.45563
Pd         0.09607       -0.43887       -0.72993
Cl         1.73547       -0.48319       -2.26378
Cl        -1.51897       -0.81349       -2.25516
H         -2.13300       -0.65528        3.02072
H         -1.00606        0.68190        2.94998
H         -0.13143       -2.10740        2.08715
H         -0.13223       -1.67283        3.77998
H          2.10080       -1.23515        2.98708
H          1.35714        0.33722        3.18647
H          3.94030        4.00263       -0.51471
H         -0.01798        4.33213        1.03091
H          4.49458       -3.71692       -1.15469
H          6.56551       -0.94094        1.32724
H         -3.20795       -4.67252       -0.15657
H         -6.22908       -1.66782       -0.10470
H         -3.59599        4.23510        1.96409
H         -2.87597        3.59185       -2.18573
H          2.00354        5.38800        0.10219
H          6.58514       -2.92327       -0.12930
H         -5.57017       -4.02261       -0.37451
H         -3.64679        5.04682       -0.35652
