171
-217.84551907
P         -1.62618        0.38538       -0.23804
P          1.64920       -0.37805       -0.35657
C         -0.93503        1.35585       -1.57940
C          0.86555       -1.34419       -1.64881
C         -0.16177        0.74912       -2.56288
C          0.43042        1.56001       -3.54938
C          0.19896        2.92583       -3.53476
C         -0.59001        3.50364       -2.56281
C         -1.14998        2.71239       -1.57969
C          1.07007       -2.70203       -1.66735
C          0.43904       -3.48549       -2.61310
C         -0.40619       -2.89815       -3.53080
C         -0.62462       -1.53027       -3.52946
C          0.03423       -0.72807       -2.57757
Cl         1.78037        0.48887        2.73096
Cl        -1.38153       -0.22272        3.00135
C         -1.55099       -0.93966       -4.53417
C          1.28146        0.97126       -4.61842
H         -0.76660        4.56683       -2.56672
H         -1.76008        3.15504       -0.80910
H          1.72701       -3.15181       -0.94058
H          0.60442       -4.55032       -2.63008
H          0.64676        3.53948       -4.29818
H         -0.91190       -3.50586       -4.26217
C         -3.92520       -3.25840       -1.59689
C         -4.24377       -2.02313       -2.14646
C         -3.49685       -0.92346       -1.74063
C         -2.49244       -1.06953       -0.81522
C         -2.19069       -2.29678       -0.28053
C         -2.89743       -3.42539       -0.67738
H         -4.51111       -4.11454       -1.87592
H         -3.70239        0.06060       -2.12706
H         -1.40848       -2.36036        0.45592
C         -4.44799        2.82245        2.35438
C         -3.09825        3.15318        2.34848
C         -2.24910        2.41526        1.53267
C         -2.73832        1.38564        0.76701
C         -4.07436        1.07153        0.79102
C         -4.96069        1.78631        1.58366
H         -5.10865        3.38219        2.98931
H         -1.19320        2.62211        1.50730
H         -4.43115        0.24933        0.19639
C          4.36309       -2.81608        2.34861
C          3.01099       -3.13329        2.29310
C          2.20854       -2.41014        1.42013
C          2.73669       -1.39716        0.65841
C          4.07215       -1.08925        0.73803
C          4.91501       -1.79173        1.58865
H          5.00003       -3.37457        3.00673
H          1.15536       -2.62275        1.34869
H          4.45860       -0.28149        0.14217
C          3.98623        3.18037       -1.87986
C          2.96110        3.39122       -0.96607
C          2.25122        2.28428       -0.51804
C          2.54637        1.03227       -0.99589
C          3.55144        0.84165       -1.91250
C          4.30838        1.91693       -2.36181
H          4.55528        4.02893       -2.20958
H          1.46568        2.38668        0.21058
H          3.75664       -0.15603       -2.26388
Pd         0.07684        0.07583        1.32121
C         -5.52313       -0.48491       -3.71936
C         -5.44189       -1.89313       -3.09775
C         -6.73434       -2.15530       -2.30353
C         -5.32122       -2.92085       -4.23964
H         -5.67964        0.27548       -2.95482
H         -4.61120       -0.24305       -4.26430
H         -6.35532       -0.41917       -4.42010
H         -6.83387       -1.44475       -1.48331
H         -7.61223       -2.05986       -2.94223
H         -6.73634       -3.15809       -1.87735
H         -5.33837       -3.94217       -3.86191
H         -6.14644       -2.81695       -4.94398
H         -4.39154       -2.78344       -4.79014
C         -1.34059       -4.80502        0.77661
C         -2.60766       -4.81594       -0.09790
C         -2.39301       -5.82069       -1.24581
C         -3.80103       -5.25972        0.76606
H         -1.46752       -4.15673        1.64300
H         -1.11490       -5.80557        1.14516
H         -0.48143       -4.45645        0.20438
H         -2.14011       -6.80720       -0.85767
H         -3.28796       -5.92557       -1.85755
H         -1.58060       -5.49542       -1.89451
H         -4.71444       -5.31786        0.17494
H         -3.62196       -6.24103        1.20509
H         -3.97235       -4.55218        1.57718
C         -1.07171        4.50913        3.07269
C         -2.58107        4.26945        3.26660
C         -2.82628        3.86724        4.73211
C         -3.32461        5.58063        2.95186
H         -0.49665        3.61482        3.31238
H         -0.85593        4.79707        2.04469
H         -0.71926        5.31057        3.72174
H         -3.88851        3.73188        4.93236
H         -2.32088        2.92914        4.96114
H         -2.45122        4.62947        5.41476
H         -4.39460        5.48467        3.13174
H         -2.95547        6.39649        3.57312
H         -3.18391        5.86112        1.90811
C         -6.58668       -0.07436        2.01096
C         -6.44602        1.39857        1.58142
C         -7.01205        1.57877        0.16076
C         -7.26519        2.27111        2.55133
H         -6.07331       -0.74116        1.31910
H         -6.15938       -0.22808        3.00161
H         -7.63429       -0.37292        2.04413
H         -6.48612        0.94945       -0.55594
H         -8.06885        1.31491        0.12451
H         -6.91004        2.61340       -0.16608
H         -8.31523        1.97901        2.54113
H         -6.90329        2.16572        3.57392
H         -7.21341        3.32329        2.27206
C          3.35832       -4.73018        4.24592
C          2.38859       -4.24402        3.15099
C          2.03167       -5.43253        2.24297
C          1.11717       -3.71095        3.84255
H          3.67418       -3.90331        4.88185
H          2.88044       -5.47513        4.88207
H          4.24485       -5.19267        3.81288
H          1.55043       -6.22920        2.80997
H          1.35440       -5.12558        1.44814
H          2.92653       -5.84206        1.77468
H          0.35303       -3.43048        3.11994
H          0.68560       -4.46482        4.50056
H          1.34676       -2.83021        4.44189
C          6.55338        0.09464        1.87092
C          6.40473       -1.42424        1.65122
C          7.07290       -1.82386        0.32481
C          7.12308       -2.14925        2.80592
H          6.14262        0.66297        1.03758
H          6.03229        0.40424        2.77658
H          7.60223        0.37270        1.97266
H          6.60156       -1.31810       -0.51616
H          8.13128       -1.56383        0.32478
H          6.98720       -2.89742        0.15781
H          8.16667       -1.84055        2.86624
H          6.65344       -1.92053        3.76248
H          7.11043       -3.22945        2.66288
C          1.43721        4.83416        0.46749
C          2.67417        4.80770       -0.45029
C          2.41412        5.74820       -1.64198
C          3.88992        5.30686        0.35061
H          1.59408        4.22050        1.35433
H          1.22588        5.84939        0.80295
H          0.55522        4.46710       -0.05633
H          2.16654        6.75257       -1.29885
H          3.28788        5.82485       -2.28769
H          1.58376        5.38390       -2.24550
H          3.71385        6.30752        0.74488
H          4.09501        4.64344        1.19066
H          4.78351        5.34417       -0.27159
C          6.44893        0.65362       -2.69463
C          5.48248        1.67477       -3.32327
C          6.26581        2.97157       -3.60553
C          4.95256        1.12458       -4.65850
H          7.31904        0.49549       -3.33158
H          6.80021        1.00303       -1.72389
H          5.96391       -0.31101       -2.55219
H          7.10613        2.77803       -4.27220
H          5.63207        3.71746       -4.08487
H          6.66581        3.39582       -2.68470
H          5.77240        0.91018       -5.34391
H          4.39114        0.20272       -4.51081
H          4.29674        1.84912       -5.13953
H         -2.46736       -1.52578       -4.60442
H          2.06010        1.67093       -4.92281
H         -1.09175       -0.91822       -5.52340
H         -1.83285        0.08012       -4.26891
H          0.68833        0.72898       -5.50101
H          1.77001        0.05768       -4.27667
