111
-148.55416300
P         -2.72625        1.87686       -0.36132
P          0.06871        0.53754        0.31052
C         -1.93715        2.18713        1.24285
C         -0.69666        1.64713        1.50650
C         -3.61352        3.37718       -0.98425
C         -2.83659        4.07346       -2.08016
C         -2.56901        2.95535        2.19988
H         -3.54718        3.36009        1.99841
C         -1.94999        3.18708        3.41627
H         -2.44277        3.78717        4.16375
C         -0.70378        2.64897        3.67476
H         -0.22370        2.82705        4.62290
C         -0.07672        1.87149        2.71769
H          0.88767        1.42703        2.90887
Pd        -1.09919        0.87475       -1.65804
Cl        -2.48142        1.11979       -3.40559
Cl         0.60736       -0.10448       -2.74419
C         -4.97743        2.80854       -1.41689
C         -4.12652        0.66803       -0.29530
H         -1.84876        4.38312       -1.73077
H         -2.68837        3.41047       -2.93325
H         -3.36279        4.96028       -2.44092
H         -4.92698        2.54495       -2.48240
H         -5.75796        3.58075       -1.33941
H         -3.95640       -0.03747       -1.11972
C         -5.35711        1.54678       -0.58948
C         -4.17059       -0.05797        1.03178
H         -3.73795        4.04396       -0.12162
H         -5.80646        1.85629        0.36415
H         -6.13274        0.95918       -1.10373
H         -5.01617       -0.74783        1.08242
H         -3.25694       -0.63213        1.19805
H         -4.26824        0.64924        1.85749
C         -1.24500       -3.73312        1.19534
C         -0.62031       -3.42318       -0.04187
C         -0.24562       -2.11141       -0.27218
C         -0.39445       -1.15013        0.69130
C         -0.87306       -1.47204        1.93410
C         -1.27068       -2.76422        2.23393
O         -1.91839       -4.97077        1.35978
C         -0.32789       -4.45362       -1.14459
H          0.15105       -1.81359       -1.22766
H         -0.95087       -0.69304        2.67264
C         -1.70985       -3.06428        3.67680
C          4.58700        1.01602        0.04195
C          3.73883        1.99259       -0.54060
C          2.36830        1.83517       -0.41028
C          1.84191        0.72577        0.19707
C          2.65460       -0.27411        0.66392
C          4.03274       -0.17905        0.56712
O          5.98516        1.25018        0.12975
C          4.28474        3.21360       -1.29732
H          1.68770        2.57944       -0.78718
H          2.19263       -1.13926        1.10697
C          4.89783       -1.35809        1.03945
C         -1.27462       -4.21108       -2.33207
C          1.13292       -4.29024       -1.61925
C         -0.48170       -5.90249       -0.65118
C         -0.68117       -2.46347        4.66022
C         -3.08524       -2.42718        3.93622
C         -1.77956       -4.57383        3.96571
C         -3.27437       -4.91308        0.94892
H         -1.15213       -3.20393       -2.72940
H         -1.07589       -4.91593       -3.13886
H         -2.31525       -4.32591       -2.03442
H          1.38744       -5.04663       -2.36112
H          1.30445       -3.31687       -2.07571
H          1.82172       -4.39593       -0.78176
H         -0.17593       -6.61336       -1.41847
H          0.12927       -6.07364        0.23443
H         -1.51430       -6.12300       -0.39133
H         -0.92763       -2.72633        5.68864
H          0.31904       -2.83988        4.44735
H         -0.65163       -1.37670        4.60181
H         -3.83853       -2.82844        3.26086
H         -3.41518       -2.61594        4.95744
H         -3.04868       -1.34798        3.79068
H         -2.55850       -5.05235        3.37686
H         -0.83331       -5.05573        3.72227
H         -1.99776       -4.76326        5.01645
H         -3.33526       -4.62429       -0.09928
H         -3.73216       -5.89371        1.08044
H         -3.81514       -4.18039        1.54580
C          6.38755        1.90854        1.32413
C          5.61090        2.87928       -2.00450
C          3.29177        3.66191       -2.39396
C          4.48836        4.37460       -0.31261
C          4.15004       -2.69585        0.83578
C          6.20363       -1.44861        0.22891
C          5.21251       -1.19162        2.53355
H          5.48550        2.02614       -2.67039
H          5.96335        3.72346       -2.59659
H          6.39078        2.63167       -1.28862
H          2.37783        4.07248       -1.96748
H          3.73025        4.43952       -3.01892
H          3.02386        2.82524       -3.03877
H          5.20007        4.11033        0.46591
H          4.86351        5.26005       -0.82516
H          3.54870        4.63769        0.17256
H          4.80401       -3.54130        1.04813
H          3.28949       -2.78392        1.49730
H          3.80361       -2.79080       -0.19293
H          5.98894       -1.51967       -0.83685
H          6.82921       -0.57334        0.38505
H          6.78448       -2.32426        0.51754
H          5.75673       -0.26886        2.72079
H          5.81810       -2.02022        2.89981
H          4.29417       -1.15956        3.11945
H          6.89664        2.83925        1.07416
H          5.52098        2.12447        1.95031
H          7.08438        1.27602        1.87376
