171
-217.84649887
P         -1.62579        0.41067       -0.28551
P          1.59278       -0.42120       -0.29745
C         -0.89514        1.33764       -1.64001
C          0.83262       -1.39697       -1.59977
C         -0.11609        0.69463       -2.59555
C          0.51573        1.46996       -3.58701
C          0.31897        2.84089       -3.60261
C         -0.47724        3.45611       -2.65986
C         -1.07792        2.69854       -1.67410
C          1.00618       -2.75931       -1.58379
C          0.39129       -3.54914       -2.53489
C         -0.40828       -2.96423       -3.49404
C         -0.59641       -1.59236       -3.52775
C          0.04772       -0.78511       -2.57058
Cl         1.65335        0.33784        2.84513
Cl        -1.55004       -0.18524        2.95238
C         -1.46304       -0.99677       -4.58166
C          1.38618        0.84535       -4.62081
H         -0.62727        4.52297       -2.68802
H         -1.69488        3.17214       -0.92810
H          1.62784       -3.20830       -0.82653
H          0.53557       -4.61709       -2.52537
H          0.80158        3.42840       -4.36542
H         -0.89931       -3.57656       -4.23151
C         -3.90914       -3.28578       -1.53006
C         -2.90978       -3.40665       -0.57319
C         -2.21259       -2.25973       -0.21526
C         -2.49646       -1.05966       -0.81753
C         -3.47755       -0.95836       -1.77329
C         -4.21203       -2.07826       -2.14638
H         -4.48408       -4.15591       -1.78806
H         -1.45090       -2.28858        0.54436
H         -3.67282        0.00581       -2.21120
C         -4.40062        2.95119        2.25235
C         -3.04906        3.27325        2.21533
C         -2.22192        2.50846        1.40343
C         -2.72714        1.45243        0.68638
C         -4.06214        1.13891        0.74846
C         -4.93109        1.89107        1.52808
H         -5.06248        3.52966        2.86884
H         -1.16864        2.72454        1.34458
H         -4.41926        0.29023        0.19339
C          4.44556       -2.87097        2.24868
C          3.09094       -3.18385        2.27647
C          2.23594       -2.44925        1.46476
C          2.71801       -1.42935        0.68286
C          4.05569       -1.12311        0.68355
C          4.95065       -1.84164        1.46309
H          5.12209       -3.43741        2.85886
H          1.18025       -2.66052        1.45471
H          4.40707       -0.30520        0.07967
C          3.89934        3.17637       -1.76577
C          4.18556        1.93163       -2.31237
C          3.43894        0.84469       -1.87281
C          2.46507        1.01230       -0.91912
C          2.19552        2.24868       -0.38829
C          2.90267        3.36483       -0.81673
H          4.48676        4.02238       -2.07126
H          3.62122       -0.14561       -2.25468
H          1.43732        2.33076        0.37084
Pd         0.00225        0.04937        1.34764
C         -1.40087       -4.70560        1.00181
C         -2.63919       -4.76442        0.08793
C         -2.38818       -5.82817       -0.99752
C         -3.86020       -5.16339        0.93489
H         -0.52338       -4.38767        0.43986
H         -1.55434       -4.01164        1.82775
H         -1.18783       -5.68460        1.43076
H         -3.26218       -5.96448       -1.63292
H         -1.55355       -5.53794       -1.63438
H         -2.15079       -6.79302       -0.54971
H         -3.69635       -6.12031        1.43010
H         -4.05693       -4.41455        1.70195
H         -4.75407       -5.25297        0.31836
C         -6.69054       -2.29508       -2.41134
C         -5.37156       -2.00382       -3.15010
C         -5.16614       -3.04791       -4.26436
C         -5.47056       -0.60980       -3.79977
H         -6.68194       -3.29023       -1.96787
H         -6.85083       -1.57455       -1.61007
H         -7.54024       -2.23847       -3.09147
H         -5.16035       -4.06123       -3.86514
H         -5.96471       -2.98914       -5.00375
H         -4.22014       -2.88687       -4.77907
H         -4.54769       -0.35190       -4.31838
H         -6.27979       -0.57970       -4.52925
H         -5.67353        0.15828       -3.05375
C         -2.05817        5.56290        2.05327
C         -2.45305        4.43540        3.02192
C         -1.20848        3.94560        3.78966
C         -3.45991        4.99223        4.04718
H         -1.34515        5.20777        1.31128
H         -2.93218        5.93672        1.52021
H         -1.60361        6.39735        2.58695
H         -0.79885        4.73845        4.41510
H         -1.46129        3.10333        4.43330
H         -0.42001        3.62154        3.11249
H         -4.33117        5.42116        3.55288
H         -3.79720        4.20976        4.72677
H         -3.00469        5.78014        4.64716
C         -6.75677        1.16027        3.07860
C         -6.42697        1.56110        1.62958
C         -6.81502        0.39610        0.69727
C         -7.25372        2.79714        1.22914
H         -7.81033        0.90146        3.18244
H         -6.16455        0.29721        3.38228
H         -6.54189        1.97297        3.77156
H         -6.28295       -0.51661        0.96512
H         -7.88229        0.18546        0.76392
H         -6.58954        0.63657       -0.34154
H         -7.06225        3.63711        1.89565
H         -7.00848        3.11142        0.21478
H         -8.32123        2.58061        1.26648
C          3.55632       -4.81120        4.17836
C          2.52243       -4.31076        3.15066
C          2.11552       -5.48551        2.24530
C          1.29166       -3.79507        3.92392
H          4.41645       -5.26438        3.68626
H          3.90782       -3.99344        4.80730
H          3.11857       -5.56742        4.82990
H          2.98109       -5.87960        1.71307
H          1.67724       -6.29596        2.82740
H          1.38577       -5.17031        1.50158
H          0.48386       -3.51110        3.25174
H          0.90476       -4.56037        4.59638
H          1.55153       -2.92074        4.52024
C          6.59730        0.00841        1.85332
C          6.43845       -1.46446        1.42980
C          6.97433       -1.65111       -0.00173
C          7.27172       -2.34019        2.38470
H          6.07473        0.67720        1.17032
H          6.19046        0.16695        2.85178
H          7.64729        0.30013        1.86524
H          6.85837       -2.68554       -0.32452
H          6.43865       -1.01927       -0.70896
H          8.03205       -1.39491       -0.05978
H          8.32301       -2.05418        2.35300
H          6.93099       -2.23098        3.41414
H          7.20854       -3.39251        2.10835
C          5.20008        2.79214       -4.45135
C          5.35019        1.77811       -3.30087
C          5.39762        0.36138       -3.90638
C          6.67084        2.03806       -2.55373
H          5.23787        3.81798       -4.08763
H          6.00049        2.67223       -5.18132
H          4.25136        2.65543       -4.96855
H          5.57232       -0.39064       -3.13747
H          4.46571        0.12183       -4.41758
H          6.20536        0.27856       -4.63344
H          6.69689        3.04654       -2.14205
H          6.79065        1.33789       -1.72729
H          7.52601        1.92484       -3.21978
C          3.86865        5.19347        0.59211
C          2.64680        4.76227       -0.23755
C          1.40260        4.77397        0.67056
C          2.41596        5.76393       -1.38493
H          4.76696        5.23428       -0.02313
H          3.71565        6.17995        1.02939
H          4.05068        4.48823        1.40291
H          0.52362        4.43459        0.12360
H          1.54206        4.12906        1.53770
H          1.20039        5.77961        1.03881
H          2.18662        6.75578       -0.99577
H          3.29606        5.85349       -2.02021
H          1.58265        5.44646       -2.01057
H         -2.34574       -1.61287       -4.75253
H          0.86790        0.77810       -5.57830
H         -0.92568       -0.91398       -5.52730
H         -1.80695       -0.00086       -4.29914
H          1.69334       -0.16021       -4.33035
H          2.29107        1.43436       -4.77137
