75
-122.81832935
P          1.84474       -0.57747        0.01456
C          3.18066       -1.29042       -0.95982
C          4.43867       -1.33614       -0.40288
C          5.48581       -1.89740       -1.11142
C          5.26267       -2.41729       -2.37075
C          3.99628       -2.38204       -2.91958
C          2.95170       -1.82060       -2.20864
H          1.95916       -1.78992       -2.62753
H          3.82111       -2.78977       -3.90161
H          6.07748       -2.85380       -2.92503
H          6.47237       -1.93071       -0.67916
H          4.59344       -0.94159        0.58936
C          1.71776       -1.57201        1.50746
C          1.59612       -0.97875        2.74296
C          1.59056       -1.75856        3.88439
C          1.70417       -3.13062        3.77981
C          1.81883       -3.72347        2.53802
C          1.82783       -2.93947        1.39821
H          1.93520       -3.38600        0.42216
H          1.90396       -4.79450        2.45579
H          1.69573       -3.74037        4.66846
H          1.49132       -1.29573        4.85242
H          1.49505        0.09171        2.80818
C          2.21291        1.13378        0.43410
C          3.37435        1.77989        0.08089
C          3.54590        3.12803        0.36254
C          2.50584        3.82010        0.98180
C          1.33098        3.18858        1.32487
C          1.18048        1.81872        1.05641
O         -0.00793        1.13884        1.36846
C         -1.19856        1.81852        1.06493
C         -1.35050        3.18658        1.34198
C         -2.53156        3.81611        1.01676
C         -3.57570        3.12494        0.40342
C         -3.39999        1.78087        0.10511
C         -2.23215        1.13700        0.44081
P         -1.85784       -0.56275       -0.01642
C         -1.69152       -1.59023        1.44811
C         -1.73093       -1.03331        2.70565
C         -1.69064       -1.84967        3.82072
C         -1.61156       -3.21965        3.66696
C         -1.56851       -3.77407        2.40298
C         -1.61120       -2.95464        1.28918
H         -1.59627       -3.37230        0.29463
H         -1.50317       -4.84294        2.28311
H         -1.57598       -3.85705        4.53530
H         -1.71647       -1.41617        4.80689
H         -1.78735        0.03778        2.80897
C         -3.20307       -1.26833       -0.98353
C         -4.44482       -1.35928       -0.39646
C         -5.49987       -1.91363       -1.09877
C         -5.30078       -2.38043       -2.38273
C         -4.05059       -2.29846       -2.96289
C         -2.99814       -1.74404       -2.25814
H         -2.01863       -1.67444       -2.70219
H         -3.89439       -2.66383       -3.96459
H         -6.12181       -2.81151       -2.93205
H         -6.47373       -1.98275       -0.64264
H         -4.58057       -1.00381        0.61320
Pd         0.01012       -0.09759       -1.40501
Cl        -1.58083        0.97012       -2.61244
Cl         1.57259        0.91614       -2.68401
H         -4.17152        1.24417       -0.41807
C         -4.82612        3.82870        0.01320
H         -5.03540        4.66191        0.68532
H         -5.68264        3.15394        0.04451
H         -4.74586        4.22430       -1.00008
H         -2.63999        4.86513        1.22885
S         -0.00580        4.06694        2.09177
H          2.61287        4.87091        1.18554
C          4.78880        3.83330       -0.04851
H          4.14456        1.24173       -0.44249
H          4.70081        4.20619       -1.06971
H          4.99446        4.68251        0.60437
H          5.65080        3.16617       -0.00666
