111
-148.55364986
P         -2.25686        2.37064        0.62377
P          0.04708        0.19406        0.52088
C         -1.34513        1.95472        2.13081
C         -0.36729        0.98551        2.08733
C         -2.20307        4.18754        0.28984
C         -1.29520        4.48771       -0.88310
C         -1.63632        2.58953        3.32092
H         -2.39322        3.35688        3.34271
C         -0.95567        2.23598        4.47330
H         -1.18313        2.72897        5.40432
C          0.00936        1.24775        4.43245
H          0.53412        0.96712        5.33083
C          0.30377        0.61948        3.23550
H          1.04965       -0.15877        3.18838
Pd        -1.52289        0.92757       -1.02524
Cl        -3.07819        1.91915       -2.30854
Cl        -0.79220       -0.57510       -2.52218
C         -3.68380        4.54601        0.06452
C         -4.08773        2.12116        0.77790
H         -1.64657        3.97921       -1.78291
H         -1.26207        5.55819       -1.09937
H         -0.27435        4.14705       -0.69242
H         -3.89388        4.51098       -1.01335
H         -3.87807        5.58543        0.36973
H         -4.39825        1.61718       -0.14706
C         -4.63204        3.56136        0.80612
C         -4.45307        1.28375        1.98548
H         -1.82724        4.65921        1.20731
H         -4.74380        3.87758        1.85226
H         -5.64552        3.59537        0.37829
H         -5.53195        1.12451        2.04856
H         -3.96801        0.30608        1.95272
H         -4.13917        1.77222        2.90887
C         -0.88589       -4.25484        0.72480
C         -1.92591       -3.29194        0.81729
C         -1.57882       -1.95124        0.79557
C         -0.28058       -1.56005        0.59702
C          0.70865       -2.48264        0.37968
C          0.43316       -3.84014        0.39853
O         -1.14995       -5.61532        1.02795
C         -3.42112       -3.64378        0.89558
H         -2.32930       -1.18947        0.92627
H          1.70714       -2.12832        0.19022
C          1.56792       -4.81491        0.04089
C          4.22672        1.26413       -0.97243
C          3.31240        0.58801       -1.82187
C          2.05249        0.30224       -1.32638
C          1.70766        0.59015       -0.03221
C          2.62827        1.13507        0.82505
C          3.91046        1.44319        0.40073
O          5.41086        1.83040       -1.51062
C          3.62997        0.15232       -3.26250
H          1.30296       -0.13285       -1.96390
H          2.33154        1.33481        1.83928
C          4.91396        1.94809        1.45187
C         -3.94035       -3.36515        2.31551
C         -4.20403       -2.77020       -0.11088
C         -3.69575       -5.11147        0.52518
C          1.03910       -6.21253       -0.32580
C          2.33380       -4.28453       -1.19137
C          2.54148       -4.92574        1.22532
C         -1.00434       -5.91057        2.40679
H         -3.42521       -3.98077        3.05046
H         -3.78591       -2.32196        2.58924
H         -5.00676       -3.57699        2.38854
H         -5.25473       -3.05736       -0.14018
H         -4.16473       -1.71426        0.15075
H         -3.79611       -2.88234       -1.11505
H         -3.27383       -5.34611       -0.45147
H         -3.25412       -5.79042        1.25079
H         -4.76580       -5.31492        0.49185
H          0.29597       -6.14561       -1.11963
H          1.84546       -6.86095       -0.66767
H          0.57083       -6.69330        0.52998
H          2.86149       -3.35914       -0.96818
H          3.07689       -5.00671       -1.52863
H          1.64933       -4.09454       -2.01770
H          2.04382       -5.31990        2.10906
H          3.37265       -5.58828        0.98512
H          2.95299       -3.95010        1.48246
H         -1.67400       -5.28596        2.99577
H         -1.24624       -6.95984        2.57717
H          0.02010       -5.72200        2.72299
C          5.22443        3.15921       -1.96960
C          2.85638        1.04642       -4.24598
C          5.13377        0.21803       -3.58039
C          3.19217       -1.31508       -3.46314
C          4.83740        1.05072        2.70722
C          6.36707        1.89186        0.94903
C          4.56117        3.39226        1.84444
H          3.04911        0.74962       -5.27652
H          1.78279        0.97787       -4.07307
H          3.14414        2.09049       -4.13754
H          5.70630       -0.35079       -2.84859
H          5.34437       -0.18966       -4.56884
H          5.49663        1.24281       -3.56374
H          2.11775       -1.43947       -3.33968
H          3.44623       -1.66270       -4.46410
H          3.69308       -1.96436       -2.74632
H          5.59440        1.33794        3.43657
H          3.86940        1.12428        3.19998
H          5.00356        0.00650        2.44381
H          7.06724        2.16034        1.73976
H          6.61472        0.88968        0.60093
H          6.52542        2.58044        0.12248
H          3.54858        3.45140        2.24243
H          4.61992        4.05908        0.98640
H          5.24378        3.76610        2.60716
H          6.16407        3.53454       -2.37551
H          4.46139        3.18324       -2.74607
H          4.90718        3.79812       -1.14721
