72
-98.10291483
Fe        -0.00839        2.82067       -0.02984
P          1.85276       -0.04207       -0.05638
P         -1.85963       -0.04212        0.06280
C          1.42990        1.59356        0.65644
C          0.43368        1.83837        1.68339
C          0.35839        3.27187        1.90587
C          1.33271        3.91233        1.03999
C          2.00929        2.87432        0.28036
C         -1.41670        1.56589       -0.69862
C         -2.00696        2.85962       -0.39084
C         -1.32516        3.86094       -1.19414
C         -0.34711        3.18265       -2.02609
C         -0.41694        1.76241       -1.73264
C          3.20584       -0.76738        0.99257
C          4.40096        0.09635        0.55555
C          2.91729        0.25297       -1.55636
C          4.33170        0.45332       -0.95823
C         -3.25963       -0.74612       -0.93760
C         -4.43266        0.11786       -0.44549
C         -2.85916        0.28894        1.59977
C         -4.30244        0.46263        1.06589
H         -0.15885        1.07540        2.18591
H         -0.29786        3.77626        2.61946
H          1.53764        4.98424        0.98583
H          2.79635        3.02856       -0.46036
H         -2.80365        3.04422        0.33278
H          0.17538        0.97580       -2.19844
Cl         1.58732       -3.06419       -0.27191
Cl        -1.63418       -3.01609        0.28782
Pd         0.00112       -1.49058        0.00305
H          3.35716       -1.80234        0.66459
C          2.91311       -0.72916        2.49429
H          2.55453        1.16923       -2.03729
C          2.87046       -0.91129       -2.54359
H          5.34996       -0.40468        0.80269
H          4.39306        1.01862        1.15500
H          4.67949        1.48344       -1.12535
H          5.03976       -0.17804       -1.51284
H         -1.53478        4.93322       -1.19511
H          0.31111        3.65399       -2.75957
H          3.86233       -0.65822        3.04352
H          3.70115       -0.81112       -3.25618
H         -3.40337       -1.78518       -0.61992
C         -3.02995       -0.68438       -2.44715
H         -2.48345        1.22212        2.03601
C         -2.75510       -0.84737        2.61575
H         -5.39245       -0.37841       -0.65809
H         -4.44652        1.04491       -1.03724
H         -4.66524        1.48290        1.25951
H         -4.97076       -0.19022        1.64426
H         -4.00255       -0.69299       -2.95867
H         -2.95476       -1.79451        2.09769
C          2.13522       -1.94280        2.98083
H          2.71833       -2.85775        2.85983
H          1.86294       -1.86312        4.03564
H          1.21810       -2.08338        2.41064
C          1.56210       -1.02192       -3.30521
H          1.37096       -0.12718       -3.90071
H          1.55401       -1.87677       -3.98528
H          0.72460       -1.14380       -2.62135
C         -2.17148       -1.82655       -2.96601
H         -1.21964       -1.87494       -2.44027
H         -2.66191       -2.78960       -2.81184
H         -1.95797       -1.73169       -4.03305
C         -1.42142       -0.91228        3.33851
H         -0.60007       -1.01684        2.63216
H         -1.23923       -0.00640        3.91982
H         -1.36885       -1.75880        4.02700
H          2.37673        0.19896        2.72926
H          3.07178       -1.84058       -1.99474
H         -2.58187        0.28526       -2.69922
H         -3.56442       -0.74547        3.35231
