111
-148.55203607
P         -2.34246        2.30031        0.59256
P          0.10451        0.27374        0.42092
C         -1.35805        1.94114        2.07020
C         -0.31951        1.03977        1.99706
C         -2.60274        4.12391        0.42706
C         -2.20757        4.59541       -0.95508
C         -1.65901        2.54907        3.27232
H         -2.46203        3.26643        3.31938
C         -0.92910        2.23504        4.40575
H         -1.16463        2.70831        5.34499
C          0.09441        1.30979        4.33577
H          0.65722        1.05763        5.21945
C          0.39789        0.70801        3.12772
H          1.18794       -0.02367        3.05850
Pd        -1.45056        1.03312       -1.13228
Cl        -3.21339        1.77383       -2.31212
Cl        -0.56765       -0.33909       -2.67000
C         -4.10268        4.29490        0.74469
C         -4.10160        1.72961        0.73504
H         -2.34684        5.67341       -1.06677
H         -1.16144        4.36426       -1.17028
H         -2.81580        4.10381       -1.71625
H         -4.50161        5.15067        0.18072
H         -4.23404        4.55332        1.80571
H         -4.24521        0.97662       -0.05160
C         -4.91053        3.00586        0.42588
C         -4.39225        1.12862        2.09428
H         -1.97630        4.60460        1.19088
H         -5.85378        2.98912        0.99097
H         -5.20097        3.01397       -0.63497
H         -4.28188        1.87781        2.87948
H         -5.41261        0.74234        2.15168
H         -3.70708        0.30918        2.32289
C         -1.01586       -4.12796        0.70690
C         -2.02047       -3.12887        0.64134
C         -1.62235       -1.80348        0.58760
C         -0.29643       -1.46734        0.49952
C          0.67419       -2.43301        0.44666
C          0.34517       -3.77702        0.51482
O         -1.36918       -5.47096        1.00465
C         -3.52156       -3.45744        0.63203
H         -2.34906       -1.00954        0.61489
H          1.69949       -2.11944        0.36008
C          1.46045       -4.82943        0.41318
C          4.40624        1.12136       -0.86693
C          3.55238        0.34851       -1.69329
C          2.24967        0.14059       -1.27415
C          1.80613        0.59475       -0.05999
C          2.65883        1.26091        0.78236
C          3.97449        1.50779        0.42720
O          5.67540        1.54073       -1.34762
C          3.99969       -0.22601       -3.04681
H          1.54118       -0.35270       -1.91462
H          2.27706        1.60582        1.72586
C          4.90139        2.21238        1.43096
C         -4.05315       -3.45887        2.07294
C         -4.30116       -2.39977       -0.18284
C         -3.78729       -4.81955       -0.03442
C          2.61046       -4.31873       -0.48293
C          2.01660       -5.11556        1.81604
C          0.94239       -6.13056       -0.22687
C         -1.41072       -5.76173        2.39599
H         -5.12127       -3.67361        2.09454
H         -3.54744       -4.20720        2.67867
H         -3.89424       -2.48880        2.54333
H         -5.34053       -2.69962       -0.31399
H         -4.30912       -1.43309        0.31694
H         -3.86193       -2.27067       -1.17177
H         -3.33479       -5.63202        0.52856
H         -4.85601       -5.02102       -0.10270
H         -3.37284       -4.84017       -1.04180
H          3.34850       -5.10285       -0.65045
H          2.22806       -4.00655       -1.45404
H          3.13447       -3.47800       -0.03088
H          1.24073       -5.49622        2.47634
H          2.81715       -5.85376        1.77597
H          2.41709       -4.20668        2.26453
H          0.18513       -6.60394        0.39302
H          0.49819       -5.92818       -1.20089
H          1.75050       -6.84850       -0.36465
H         -1.16051       -4.87376        2.97787
H         -2.40835       -6.10582        2.66834
H         -0.70134       -6.55694        2.62453
C          5.65284        2.78540       -2.03561
C          5.50052       -0.56887       -3.03895
C          3.24432       -1.53777       -3.35786
C          3.69115        0.79069       -4.15620
C          4.81995        3.73181        1.21987
C          4.47775        1.89453        2.88340
C          6.35558        1.73186        1.27363
H          5.80044       -1.03671       -3.97632
H          6.11131        0.32022       -2.90567
H          5.73206       -1.25744       -2.22696
H          3.63939       -2.00794       -4.25804
H          3.35121       -2.24535       -2.53717
H          2.18280       -1.36491       -3.52755
H          4.21475        1.72885       -3.98870
H          3.98977        0.40722       -5.13145
H          2.62395        1.00861       -4.19161
H          3.79817        4.08538        1.35610
H          5.45723        4.25925        1.92920
H          5.13452        4.00829        0.21655
H          5.20755        2.28395        3.59290
H          3.51879        2.34655        3.13252
H          4.40168        0.81861        3.03860
H          6.41555        0.64925        1.38003
H          7.00115        2.18325        2.02660
H          6.75675        1.99361        0.29771
H          5.98834        2.64331       -3.06272
H          4.64454        3.20131       -2.03703
H          6.33398        3.48362       -1.54935
