58
-89.86758664
P          1.71421        0.21875        0.75787
C          3.03824        1.38423        0.43121
C          4.30505        0.92900        0.14577
C          5.31821        1.83444       -0.11314
C          5.05312        3.18953       -0.08457
C          3.77985        3.64110        0.20219
C          2.76852        2.73316        0.46166
H          1.76704        3.06994        0.67962
H          4.49444       -0.13205        0.12145
C          2.18152       -1.44122        0.25325
C          2.35055       -1.67679       -1.09246
C          2.68033       -2.94324       -1.53746
C          2.84090       -3.96834       -0.62674
C          2.67558       -3.72825        0.72329
C          2.34533       -2.45967        1.16494
H          2.21417       -2.26532        2.21643
H          2.20885       -0.86374       -1.78688
C          1.33720        0.33312        2.55403
C          0.04758       -0.34320        2.99078
C         -1.21099        0.38415        2.53653
P         -1.68955       -0.03497        0.81431
C         -1.84479       -1.82273        0.71851
C         -2.87277       -2.44403        1.39082
C         -2.98571       -3.82268        1.35326
C         -2.06157       -4.57023        0.65017
C         -1.02550       -3.94335       -0.01266
C         -0.91904       -2.56557        0.02418
H         -0.10359       -2.06971       -0.47286
H         -3.58132       -1.84808        1.94441
C         -3.25264        0.76511        0.42723
C         -4.23240        0.07117       -0.24566
C         -5.42118        0.69820       -0.57231
C         -5.61793        2.02065       -0.22768
C         -4.62827        2.71728        0.43712
C         -3.44001        2.08715        0.76177
H         -2.65296        2.62637        1.26435
H         -4.05854       -0.95519       -0.52571
Pd        -0.04866        0.70878       -0.65536
Cl         1.43883        1.30607       -2.23681
Cl        -1.76358        1.13020       -2.05479
H         -2.07239        0.11316        3.15217
H         -1.09030        1.46569        2.61482
H          0.02436       -1.37765        2.62267
H          0.04207       -0.42688        4.08897
H          2.20456       -0.08393        3.07122
H          1.31063        1.39555        2.80386
H          6.31098        1.48204       -0.33999
H          3.57200        4.69831        0.21990
H          2.80789       -3.12847       -2.59128
H          2.80078       -4.52937        1.43311
H         -3.79216       -4.31143        1.87483
H         -0.29535       -4.52455       -0.55133
H         -6.18870        0.15664       -1.10042
H         -4.77764        3.75228        0.69743
H          5.84087        3.89611       -0.28926
H          3.09610       -4.95765       -0.97002
H         -2.14666       -5.64432        0.62236
H         -6.54239        2.51185       -0.48423
