171
-217.83862992
P         -1.45560        0.25770       -0.38541
P          1.68094       -0.69725        0.39404
C         -0.43575        1.09706       -1.61395
C          1.05157       -1.67353       -0.99244
C          0.46610        0.34013       -2.35176
C          1.29708        0.98346       -3.28901
C          1.15247        2.34626       -3.49014
C          0.23811        3.07921       -2.76289
C         -0.54863        2.45094       -1.81761
C          1.04473       -3.03215       -0.77914
C          0.52417       -3.88575       -1.73247
C         -0.00503       -3.36538       -2.89371
C         -0.02580       -1.99961       -3.12043
C          0.52133       -1.13114       -2.15733
Cl         0.63989       -1.14243        3.41062
Cl        -2.32536       -1.51562        2.34840
C         -0.64291       -1.48470       -4.37374
C          2.30775        0.21976       -4.07123
H          0.14225        4.13971       -2.92887
H         -1.24573        3.02285       -1.23012
H          1.44068       -3.42262        0.14688
H          0.52382       -4.95021       -1.56383
H          1.76428        2.83338       -4.23015
H         -0.42214       -4.02309       -3.63762
C         -4.17452       -2.62894       -2.57281
C         -3.52807       -3.06821       -1.42449
C         -2.71649       -2.16532       -0.75159
C         -2.54383       -0.89096       -1.22891
C         -3.17294       -0.47995       -2.37853
C         -4.01130       -1.34351       -3.07403
H         -4.83550       -3.30500       -3.08281
H         -2.22444       -2.44580        0.16152
H         -2.98911        0.51645       -2.74037
C         -4.16601        3.29334        1.66977
C         -3.36559        2.48714        2.46794
C         -2.53042        1.57439        1.83843
C         -2.50544        1.46106        0.46835
C         -3.32547        2.25269       -0.29829
C         -4.15980        3.19744        0.28397
H         -4.81932        3.99922        2.14699
H         -1.90833        0.93120        2.43039
H         -3.31770        2.13659       -1.36816
C          5.54080       -2.68714        1.70638
C          4.67619       -2.21661        2.68851
C          3.48968       -1.62522        2.27944
C          3.18560       -1.50871        0.94800
C          4.05169       -1.97622       -0.00980
C          5.24865       -2.58127        0.35103
H          6.46156       -3.15039        2.00406
H          2.78190       -1.27012        3.00585
H          3.78625       -1.87483       -1.04935
C          2.85186        3.63979       -0.20205
C          3.62831        2.63598       -0.76447
C          3.21575        1.32208       -0.58281
C          2.08412        1.03800        0.14169
C          1.33896        2.04507        0.71142
C          1.70535        3.37434        0.53592
H          3.16054        4.66109       -0.32841
H          3.78374        0.50521       -0.99275
H          0.46715        1.78990        1.28613
Pd        -0.39884       -0.78516        1.45205
C         -5.21342       -4.71562       -0.57351
C         -3.73030       -4.50584       -0.92701
C         -2.88092       -4.79654        0.32667
C         -3.31269       -5.49122       -2.03412
H         -5.38670       -5.72456       -0.19963
H         -5.52771       -4.01115        0.19636
H         -5.85208       -4.56735       -1.44353
H         -1.81979       -4.65493        0.12254
H         -3.16325       -4.14432        1.15279
H         -3.01927       -5.82544        0.65808
H         -3.91608       -5.35970       -2.93143
H         -2.26879       -5.34122       -2.30785
H         -3.42926       -6.52279       -1.70244
C         -4.65534       -1.92480       -5.44455
C         -4.79780       -0.88881       -4.31242
C         -4.28979        0.46876       -4.83835
C         -6.28098       -0.74671       -3.92813
H         -5.18458       -1.59614       -6.33888
H         -3.60894       -2.06894       -5.71029
H         -5.06622       -2.89174       -5.15813
H         -4.82232        0.75598       -5.74489
H         -4.44454        1.26024       -4.10577
H         -3.22760        0.42281       -5.07765
H         -6.68748       -1.69629       -3.58107
H         -6.40293       -0.01853       -3.12637
H         -6.87614       -0.41620       -4.77920
C         -2.44621        1.64460        4.68947
C         -3.46280        2.57644        3.99854
C         -4.87941        2.15819        4.43196
C         -3.18598        4.01998        4.45729
H         -2.51526        1.73292        5.77344
H         -2.63092        0.60143        4.43379
H         -1.42502        1.89422        4.40263
H         -5.63366        2.81731        4.00348
H         -5.09677        1.14227        4.10261
H         -4.98235        2.19147        5.51641
H         -3.25766        4.10316        5.54162
H         -2.18509        4.33368        4.16425
H         -3.89847        4.72027        4.02344
C         -4.12577        4.86643       -1.58483
C         -5.03244        4.08107       -0.61781
C         -5.86145        5.08899        0.20083
C         -5.99720        3.18835       -1.42033
H         -3.41047        5.47571       -1.03243
H         -3.56282        4.19661       -2.23388
H         -4.71382        5.52807       -2.22056
H         -5.21555        5.74649        0.78256
H         -6.46561        5.71565       -0.45516
H         -6.53984        4.57706        0.88305
H         -6.63265        2.60920       -0.75065
H         -6.64102        3.78808       -2.06342
H         -5.45401        2.48750       -2.05289
C          6.33447       -3.01176        4.45122
C          4.97562       -2.33425        4.18988
C          3.87278       -3.17404        4.86142
C          5.00405       -0.92570        4.81208
H          6.35378       -4.02261        4.04430
H          7.14922       -2.44229        4.00437
H          6.53087       -3.08381        5.52091
H          4.06535       -3.29030        5.92773
H          2.89512       -2.70691        4.74882
H          3.82115       -4.16756        4.41670
H          4.04341       -0.42428        4.70023
H          5.23255       -0.97376        5.87659
H          5.76191       -0.30770        4.33101
C          6.60031       -1.94430       -1.66333
C          6.18144       -3.10973       -0.74809
C          5.43493       -4.17379       -1.57466
C          7.45320       -3.75034       -0.15990
H          7.11203       -1.17101       -1.09086
H          7.27606       -2.28665       -2.44685
H          5.73594       -1.48921       -2.14555
H          4.55219       -3.75434       -2.05613
H          6.07671       -4.58348       -2.35442
H          5.10891       -4.99624       -0.93827
H          8.10204       -4.12032       -0.95372
H          8.02412       -3.02662        0.42155
H          7.20589       -4.59455        0.48346
C          5.85063        3.78492       -0.59172
C          4.91326        2.99471       -1.52422
C          4.55962        3.85228       -2.75174
C          5.65927        1.73413       -2.00283
H          6.08644        3.20280        0.29900
H          6.78692        4.02729       -1.09417
H          5.39487        4.72031       -0.26948
H          3.90927        3.30194       -3.42983
H          4.04383        4.76667       -2.46076
H          5.45697        4.13437       -3.30218
H          5.04411        1.14718       -2.68386
H          6.57325        2.00204       -2.53268
H          5.93901        1.10409       -1.15885
C          1.81080        5.20063        2.24297
C          0.92929        4.53904        1.16880
C         -0.37482        4.06224        1.83007
C          0.56317        5.57484        0.08841
H          2.08533        4.47921        3.01240
H          2.73002        5.59413        1.81022
H          1.28661        6.02581        2.72478
H         -1.02159        3.57549        1.10241
H         -0.17441        3.36256        2.64079
H         -0.92571        4.90488        2.24683
H          0.00160        6.40343        0.51964
H          1.45065        5.98922       -0.38757
H         -0.05361        5.12206       -0.68642
H         -0.00195       -1.68168       -5.23422
H          2.63958       -0.66641       -3.52783
H         -0.82045       -0.40991       -4.32230
H         -1.60364       -1.96787       -4.55385
H          3.18889        0.82961       -4.27552
H          1.89703       -0.10396       -5.02838
