171
-217.84125356
P         -1.51877        0.24739       -0.34106
P          1.68156       -0.63730       -0.14002
C         -0.77231        0.96432       -1.81199
C          0.97284       -1.73902       -1.38867
C         -0.02015        0.17297       -2.66992
C          0.58098        0.76944       -3.79600
C          0.38078        2.11916       -4.03484
C         -0.37370        2.88762       -3.17469
C         -0.94567        2.30372       -2.06212
C          1.18183       -3.08698       -1.21292
C          0.56547       -4.00839       -2.03604
C         -0.29216       -3.57262       -3.02203
C         -0.52457       -2.22242       -3.21756
C          0.14543       -1.28150       -2.41159
Cl         1.32173       -0.51921        3.10782
Cl        -1.82341       -1.05220        2.67190
C         -1.49428       -1.80223       -4.26655
C          1.40990       -0.03274       -4.73769
H         -0.51451        3.93863       -3.36755
H         -1.53412        2.89916       -1.38543
H          1.83353       -3.42730       -0.42602
H          0.74022       -5.06262       -1.89500
H          0.82106        2.56751       -4.90911
H         -0.79604       -4.28526       -3.65316
C         -4.24812       -3.19684       -1.45682
C         -3.19113       -3.42380       -0.58485
C         -2.38100       -2.34611       -0.25436
C         -2.62173       -1.09933       -0.77644
C         -3.66243       -0.89744       -1.64889
C         -4.50213       -1.94509       -2.00603
H         -4.89087       -4.02066       -1.70362
H         -1.54949       -2.47658        0.41475
H         -3.81877        0.08206       -2.06356
C         -3.75365        3.62661        1.75203
C         -4.11081        3.26341        0.46083
C         -3.43443        2.20108       -0.12622
C         -2.42170        1.55196        0.53937
C         -2.07778        1.94264        1.81237
C         -2.74566        2.97777        2.45060
H         -4.27357        4.43880        2.22604
H         -3.67306        1.89703       -1.12911
H         -1.28132        1.43592        2.32251
C          5.09289       -2.63497        2.08137
C          3.80514       -3.12868        2.24664
C          2.77784       -2.50412        1.55184
C          3.03659       -1.43485        0.73083
C          4.31554       -0.95705        0.58408
C          5.37444       -1.55102        1.25919
H          5.89850       -3.10017        2.61918
H          1.75710       -2.82367        1.67621
H          4.47918       -0.10592       -0.05182
C          2.95106        3.54073       -1.33380
C          2.02509        3.39278       -0.30782
C          1.63093        2.10420        0.02436
C          2.14168        1.02014       -0.64935
C          3.05774        1.18366       -1.65882
C          3.48883        2.45574       -2.01599
H          3.27907        4.52607       -1.60630
H          0.92583        1.94686        0.82179
H          3.43736        0.30819       -2.15774
Pd        -0.08826       -0.48702        1.36225
C         -2.77632       -5.83990       -1.12897
C         -2.96279       -4.82078        0.00970
C         -4.18408       -5.21020        0.86162
C         -1.70905       -4.85850        0.90777
H         -3.65895       -5.89135       -1.76519
H         -1.92822       -5.56596       -1.75500
H         -2.59324       -6.83835       -0.73230
H         -5.09152       -5.24266        0.25968
H         -4.04744       -6.19209        1.31435
H         -4.33930       -4.48724        1.66227
H         -1.55013       -5.85903        1.30948
H         -0.81621       -4.58266        0.34774
H         -1.81002       -4.17758        1.75269
C         -6.71778       -0.80132       -2.15550
C         -5.70623       -1.67331       -2.92040
C         -6.40209       -2.97996       -3.34843
C         -5.24878       -0.93444       -4.19322
H         -7.05884       -1.30856       -1.25323
H         -6.26955        0.14487       -1.85535
H         -7.58989       -0.58096       -2.77082
H         -5.70471       -3.64472       -3.85810
H         -6.81736       -3.50606       -2.48922
H         -7.22469       -2.77340       -4.03306
H         -4.52170       -1.52848       -4.74529
H         -6.09361       -0.74297       -4.85465
H         -4.79185        0.02587       -3.95853
C         -5.40237        3.52829       -1.71752
C         -5.20888        4.04213       -0.27710
C         -4.81774        5.53047       -0.34437
C         -6.53850        3.88519        0.48207
H         -6.17493        4.09988       -2.23168
H         -4.48264        3.62277       -2.29479
H         -5.70891        2.48306       -1.72351
H         -5.56589        6.10614       -0.88907
H         -4.72591        5.96298        0.65114
H         -3.86115        5.65359       -0.85219
H         -6.46403        4.27915        1.49504
H         -7.34300        4.41732       -0.02530
H         -6.81944        2.83442        0.55166
C         -1.91618        4.86845        3.87505
C         -2.40012        3.40760        3.88366
C         -1.28930        2.52651        4.49067
C         -3.65474        3.27968        4.76725
H         -2.68286        5.53726        3.48559
H         -1.66172        5.20106        4.88121
H         -1.02982        4.97604        3.25125
H         -1.59061        1.47950        4.51919
H         -0.36653        2.60352        3.91681
H         -1.06655        2.83362        5.51224
H         -3.43501        3.55370        5.79894
H         -4.45661        3.92709        4.41454
H         -4.02466        2.25455        4.76149
C          3.94668       -3.89150        4.62707
C          3.54379       -4.30309        3.19955
C          4.37412       -5.51974        2.75185
C          2.05497       -4.70543        3.20961
H          3.75450       -4.69734        5.33516
H          5.00580       -3.64267        4.68280
H          3.38047       -3.01705        4.94738
H          4.11710       -5.80623        1.73218
H          5.44148       -5.30398        2.78008
H          4.19069       -6.37670        3.39977
H          1.88626       -5.54781        3.88018
H          1.42839       -3.88221        3.55254
H          1.72182       -5.00293        2.21539
C          7.31203       -0.58271        2.52042
C          6.81491       -1.03430        1.13503
C          6.90777        0.16381        0.16909
C          7.71659       -2.16183        0.60006
H          7.31435       -1.40987        3.22929
H          8.32714       -0.19032        2.46216
H          6.66943        0.20035        2.92249
H          6.57638       -0.11389       -0.83105
H          6.29805        0.99748        0.51710
H          7.93529        0.51833        0.08911
H          8.74374       -1.81702        0.48208
H          7.72768       -3.01552        1.27665
H          7.36324       -2.50870       -0.37085
C          1.80274        4.39382        1.97877
C          1.46787        4.58357        0.48734
C         -0.05839        4.65585        0.30670
C          2.07627        5.91842        0.01684
H          1.44565        5.23659        2.57016
H          1.34373        3.48947        2.37556
H          2.87974        4.31210        2.12356
H         -0.53904        3.74446        0.65758
H         -0.48023        5.49145        0.86452
H         -0.31463        4.79249       -0.74315
H          1.67704        6.75043        0.59687
H          3.15925        5.92063        0.13910
H          1.84475        6.10707       -1.03132
C          3.97306        3.55040       -4.22243
C          4.55965        2.68625       -3.09213
C          5.05542        1.35836       -3.69710
C          5.76488        3.40716       -2.45935
H          3.12049        3.05347       -4.68284
H          3.63602        4.51672       -3.84926
H          4.71546        3.73274       -4.99922
H          5.49821        0.72019       -2.93307
H          4.24055        0.81301       -4.17075
H          5.81580        1.53937       -4.45669
H          5.48169        4.38169       -2.06355
H          6.17693        2.81982       -1.63899
H          6.55556        3.56291       -3.19309
H         -1.08064       -1.94986       -5.26499
H          2.14868        0.59120       -5.24239
H         -1.76739       -0.75125       -4.16307
H         -2.41123       -2.38885       -4.19463
H          0.78960       -0.49672       -5.50519
H          1.94716       -0.82418       -4.21279
