105
-153.05913125
Cl         3.30200       -0.08366       -1.72412
Pd         1.13570        0.36274       -1.32209
P         -1.19450        0.66942       -0.98366
N         -1.64036       -0.81015       -1.85946
C         -0.95896       -2.01760       -1.67096
C         -0.74175       -2.58207       -0.38964
C          0.03466       -3.74844       -0.25460
C          0.21491       -4.35991        1.11364
C          1.43562       -5.28654        1.21191
C          1.44176       -6.29150        0.05567
C          1.47646       -5.57104       -1.30264
C          0.59317       -4.34925       -1.38450
C          0.34459       -3.80003       -2.63663
C         -0.42171       -2.67220       -2.78146
H         -0.57774       -2.24854       -3.75811
H          0.77688       -4.26840       -3.50469
H          2.50518       -5.26653       -1.52996
H          2.28728       -6.98741        0.15068
H          2.35196       -4.68414        1.17426
H          0.28468       -3.56623        1.86672
C         -1.35225       -1.96289        0.80904
C         -0.52711       -1.23199        1.69628
C         -1.08833       -0.74383        2.87520
C         -2.40533       -0.97882        3.17896
C         -3.22884       -1.69794        2.32013
C         -4.66315       -1.92835        2.72600
C         -5.37881       -3.00887        1.89980
C         -5.06386       -2.85824        0.40795
C         -3.55261       -2.96661        0.14982
C         -2.70546       -2.18093        1.11903
H         -3.24320       -4.01770        0.18991
H         -5.42361       -1.88238        0.05900
H         -6.46390       -2.97840        2.07298
H         -5.20648       -0.98022        2.64305
H         -2.81904       -0.59888        4.09776
H         -0.46656       -0.20688        3.56508
N          0.84933       -1.13048        1.44231
P          1.70395        0.32066        0.96677
C          3.45844        0.00865        1.15354
C          4.34582        1.05301        1.04761
C          5.70339        0.81552        1.16723
C          6.17884       -0.46833        1.39875
C          5.26660       -1.51056        1.49521
C          3.90970       -1.27026        1.37574
H          3.20094       -2.07728        1.45799
H          5.62547       -2.51210        1.66028
C          7.64177       -0.72903        1.49539
H          6.40367        1.62799        1.07467
H          3.97370        2.04858        0.86429
C          1.29978        1.81676        1.85291
C          1.22738        2.99142        1.14212
C          0.86744        4.16198        1.78501
C          0.60733        4.16480        3.14890
C          0.73128        2.97595        3.85608
C          1.09045        1.80641        3.21071
H          1.23392        0.89199        3.76265
H          0.54331        2.97150        4.91617
C          0.17643        5.41409        3.83509
H          0.78843        5.08154        1.23052
H          1.48562        2.98883        0.09445
H          1.19145       -1.73314        0.70397
H         -1.67930       -0.52049       -2.82625
C         -1.33846        2.07407       -2.11398
C         -2.02205        1.99046       -3.30485
C         -2.12367        3.09996       -4.12390
C         -1.55977        4.31120       -3.74916
C         -0.89183        4.38472       -2.53536
C         -0.79239        3.27247       -1.71982
H         -0.31389        3.34228       -0.75864
H         -0.45216        5.31904       -2.23045
C         -1.64266        5.49752       -4.64553
H         -2.64467        3.03120       -5.06365
H         -2.49426        1.06790       -3.59410
C         -2.40024        1.06106        0.28014
C         -2.05159        1.79185        1.38855
C         -3.02185        2.16027        2.30122
C         -4.35101        1.81602        2.09611
C         -4.68648        1.09308        0.95853
C         -3.71132        0.72220        0.04958
H         -3.96279        0.17043       -0.84248
H         -5.71411        0.82093        0.78869
C         -5.38668        2.18428        3.10028
H         -2.75004        2.71638        3.18211
H         -1.02328        2.06666        1.54075
Cl         0.69268        0.31465       -3.52621
H          1.19341       -6.26411       -2.10515
H          1.46079       -5.80321        2.18176
H          0.54081       -6.91517        0.11445
H         -0.69449       -4.91842        1.36535
H         -5.61530       -3.60289       -0.18325
H         -3.32203       -2.63176       -0.86921
H         -4.69047       -2.18678        3.79234
H         -5.05475       -4.00075        2.23931
H          8.16825        0.13063        1.91236
H          7.84770       -1.58638        2.13771
H          8.06310       -0.93686        0.51094
H         -0.90938        5.51574        3.80673
H          0.48770        5.41712        4.88063
H          0.60955        6.29463        3.35852
H         -0.80728        5.51121       -5.34683
H         -2.56771        5.49003       -5.22373
H         -1.61755        6.42627       -4.07382
H         -6.38849        2.14107        2.67078
H         -5.35724        1.50491        3.95336
H         -5.22854        3.19786        3.47145
