111
-148.55000916
P         -2.52806        2.10429        0.83249
P          0.09126        0.37597        0.48225
C         -1.47661        1.76664        2.27213
C         -0.30354        1.06534        2.09887
C         -3.33247        3.76761        0.97542
C         -2.62332        4.83067        0.16555
C         -1.83468        2.20200        3.53250
H         -2.76421        2.72820        3.67257
C         -1.00757        1.94414        4.61220
H         -1.28706        2.28434        5.59596
C          0.17346        1.25019        4.43207
H          0.81603        1.04774        5.27309
C          0.52425        0.80409        3.17073
H          1.43217        0.24246        3.01420
Pd        -1.31068        1.44240       -1.02583
Cl        -2.52927        2.82377       -2.29549
Cl         0.00602        0.63464       -2.66202
C         -4.78058        3.47303        0.54625
C         -4.03205        1.02725        0.72621
H         -3.09861        5.80688        0.28556
H         -1.57651        4.92334        0.46382
H         -2.64040        4.58903       -0.89679
H         -4.86055        3.60828       -0.54130
H         -5.47043        4.20793        0.98869
H         -4.04452        0.62192       -0.29447
C         -5.19397        2.02076        0.92144
C         -3.97729       -0.08889        1.74660
H         -3.30709        4.02895        2.04068
H         -5.51008        1.99212        1.97315
H         -6.07293        1.70118        0.34151
H         -4.87329       -0.71264        1.70602
H         -3.11025       -0.73215        1.58192
H         -3.89821        0.31460        2.75785
C         -1.21403       -3.98971        0.30221
C         -1.14093       -3.33107        1.55660
C         -0.72396       -2.01083        1.58140
C         -0.46538       -1.32884        0.42139
C         -0.64751       -1.92947       -0.79577
C         -1.05429       -3.24741       -0.89519
O         -1.40712       -5.39574        0.24808
C         -1.47600       -4.03551        2.88054
H         -0.58866       -1.49590        2.51571
H         -0.45404       -1.34584       -1.67783
C         -1.28252       -3.85139       -2.28933
C          4.46245        0.75879       -0.73032
C          3.78459       -0.47463       -0.90347
C          2.45612       -0.54845       -0.52280
C          1.82549        0.51467        0.06794
C          2.50375        1.67601        0.32995
C          3.83822        1.81499       -0.01716
O          5.74633        0.95091       -1.30624
C          4.44256       -1.70968       -1.53801
H          1.88527       -1.44193       -0.70338
H          1.96856        2.48129        0.80325
C          4.57550        3.11184        0.35195
C         -2.57712       -5.09269        2.68075
C         -0.20646       -4.69284        3.44223
C         -2.00821       -3.02278        3.92034
C          0.04121       -4.42686       -2.81561
C         -2.36232       -4.94773       -2.25072
C         -1.77640       -2.76837       -3.27630
C         -0.19807       -6.14458        0.25064
H         -3.46596       -4.64211        2.24028
H         -2.24558       -5.89053        2.02074
H         -2.86148       -5.54674        3.62967
H          0.19225       -5.43281        2.75248
H          0.56965       -3.94731        3.61388
H         -0.41127       -5.19159        4.38922
H         -2.35661       -3.53616        4.81624
H         -1.23639       -2.32173        4.23444
H         -2.84474       -2.45417        3.51550
H         -0.08933       -4.86499       -3.80472
H          0.79748       -3.64586       -2.89039
H          0.42689       -5.19868       -2.15362
H         -2.56956       -5.32923       -3.25020
H         -2.05273       -5.78878       -1.63559
H         -3.29136       -4.55626       -1.83762
H         -1.00256       -2.03282       -3.49030
H         -2.06418       -3.21431       -4.22799
H         -2.64422       -2.24529       -2.87547
H         -0.12745       -6.73048       -0.66557
H          0.66250       -5.47819        0.32280
H         -0.19698       -6.83270        1.09586
C          5.71166        1.46600       -2.63141
C          3.83350       -3.00878       -0.96095
C          4.19948       -1.68631       -3.05484
C          5.95218       -1.75269       -1.24068
C          4.40105        4.13575       -0.77979
C          4.00051        3.71269        1.65496
C          6.07148        2.84845        0.60319
H          2.79603       -3.13967       -1.26435
H          4.38104       -3.88253       -1.31361
H          3.87395       -3.00536        0.12796
H          4.64329       -2.55767       -3.53561
H          3.13174       -1.68652       -3.27326
H          4.62842       -0.79607       -3.50874
H          6.40408       -2.66127       -1.63789
H          6.46926       -0.90677       -1.68630
H          6.13237       -1.72565       -0.16655
H          4.81402        3.76422       -1.71451
H          3.34560        4.34990       -0.94619
H          4.90230        5.07296       -0.53931
H          3.99315        2.97103        2.45335
H          4.60136        4.55823        1.98912
H          2.98412        4.07827        1.51699
H          6.56981        2.49910       -0.29763
H          6.20331        2.08942        1.37356
H          6.57971        3.75537        0.92982
H          6.18691        0.75990       -3.31206
H          4.68103        1.63594       -2.94570
H          6.26443        2.40439       -2.67338
