75
-122.81248528
P          1.89455       -0.52535       -0.16700
C          3.34708       -1.21687       -0.99017
C          4.29857       -1.82532       -0.20180
C          5.43323       -2.36738       -0.77825
C          5.61166       -2.29405       -2.14504
C          4.66165       -1.67607       -2.93271
C          3.53194       -1.13520       -2.35035
H          2.80127       -0.62444       -2.95188
H          4.80298       -1.60910       -3.99899
H          6.49474       -2.71582       -2.59673
H          6.17523       -2.84620       -0.16064
H          4.14837       -1.87621        0.86491
C          1.61665       -1.57553        1.26255
C          1.88464       -1.11304        2.53057
C          1.79110       -1.97326        3.60904
C          1.43591       -3.29238        3.40717
C          1.17009       -3.75215        2.13246
C          1.26503       -2.88967        1.05491
H          1.08332       -3.23785        0.05000
H          0.89044       -4.78090        1.97585
H          1.35912       -3.96307        4.24730
H          1.99438       -1.61364        4.60425
H          2.16925       -0.08278        2.66964
C          2.25881        1.16298        0.32694
C          3.40820        1.82204       -0.04092
C          3.57643        3.16644        0.26348
C          2.55271        3.83406        0.93478
C          1.39089        3.18726        1.29460
C          1.24623        1.82072        1.00763
O          0.08243        1.11966        1.36081
C         -1.12984        1.77695        1.09885
C         -1.29190        3.14405        1.37340
C         -2.48849        3.75518        1.07164
C         -3.53360        3.04636        0.47990
C         -3.35717        1.69638        0.21101
C         -2.17341        1.06917        0.52200
P         -1.77756       -0.64530        0.12051
C         -1.73827       -1.58916        1.65526
C         -1.41044       -0.97621        2.84271
C         -1.47242       -1.68530        4.02762
C         -1.85718       -3.01111        4.01494
C         -2.17671       -3.62739        2.82135
C         -2.11945       -2.91179        1.63892
H         -2.38263       -3.37618        0.70199
H         -2.47419       -4.66302        2.81026
H         -1.90134       -3.56747        4.93693
H         -1.21199       -1.20561        4.95672
H         -1.08827        0.05124        2.83398
C         -3.07662       -1.37960       -0.88982
C         -4.36134       -1.39762       -0.39578
C         -5.37693       -1.97448       -1.13672
C         -5.09620       -2.53892       -2.36485
C         -3.80329       -2.53444       -2.84886
C         -2.79024       -1.95771       -2.10528
H         -1.77689       -1.95598       -2.47230
H         -3.58268       -2.97846       -3.80567
H         -5.88650       -2.98705       -2.94475
H         -6.38409       -1.98560       -0.75360
H         -4.56187       -0.97487        0.57633
Pd        -0.06914       -0.01560       -1.41831
Cl        -1.75691        0.96008       -2.56587
Cl         1.33474        0.87553       -2.93588
H         -4.14234        1.14404       -0.27299
C         -4.82159        3.71518        0.15458
H         -5.21021        3.36755       -0.80357
H         -4.70017        4.79713        0.08942
H         -5.57093        3.50558        0.91893
H         -2.60949        4.80188        1.28800
S          0.05854        4.03995        2.09780
H          2.66283        4.87870        1.16667
C          4.82433        3.88367       -0.11132
H          4.17025        1.29286       -0.58634
H          5.37765        3.34038       -0.87841
H          4.60090        4.87620       -0.50472
H          5.47767        4.00250        0.75396
