115
-277.93829917
P         -1.47864        0.49245        0.12393
P          2.15736        0.03358        0.04960
C         -2.37900        2.03636       -0.08412
C         -3.70011        2.08557        0.30979
H         -4.22174        1.17286        0.55281
C         -4.29955        3.31240        0.52237
H         -5.28593        3.36964        0.95391
C         -3.58122        4.48347        0.32584
C         -2.30505        4.41528       -0.20810
H         -1.75569        5.33400       -0.34453
C         -1.69749        3.19210       -0.39949
H         -0.67215        3.14656       -0.72751
C         -2.54941       -0.80286       -0.53681
C         -2.93475       -0.77423       -1.85617
H         -2.56914        0.00762       -2.50093
C         -3.79722       -1.73071       -2.34808
H         -4.12805       -1.70949       -3.37466
C         -4.27232       -2.72842       -1.52090
C         -3.87840       -2.75439       -0.19614
H         -4.26567       -3.52949        0.44624
C         -3.02104       -1.79227        0.29530
H         -2.73212       -1.80551        1.33306
C         -1.20291        0.22707        1.91815
C         -0.48531       -0.93068        2.14164
H         -0.13439       -1.49760        1.30125
C         -0.04644       -1.29331        3.41291
C         -0.55085       -0.58142        4.49397
H         -0.26445       -0.86317        5.49345
C         -1.27759        0.57368        4.28719
H         -1.55285        1.18044        5.13330
C         -1.51102        1.06423        3.00185
C          1.90209        0.72476        1.72017
C          1.19414        1.91383        1.69411
H          0.82124        2.28367        0.75383
C          0.81098        2.55632        2.87180
C          1.36266        2.09973        4.06339
H          1.11477        2.60012        4.98457
C          2.07984        0.92094        4.09714
H          2.38802        0.51698        5.04653
C          2.25906        0.15240        2.94778
C         -1.74723        2.55316        2.87838
H         -2.42626        2.87892        3.67535
H         -2.31000        2.75979        1.97265
C         -0.42969        3.41076        2.90275
H         -0.41186        4.12016        2.06884
H         -0.40547        4.04318        3.79733
C          1.20355       -2.12204        3.55571
H          1.09554       -3.04209        2.97134
H          1.28544       -2.46194        4.59383
C          2.49544       -1.32915        3.13211
H          3.29340       -1.47794        3.86779
H          2.89726       -1.73278        2.20593
C          2.13360       -1.76515       -0.09705
C          3.27618       -2.47517        0.20359
C          0.95141       -2.42649       -0.35399
C          3.19890       -3.83920        0.40255
C          0.87478       -3.78773       -0.15716
C          1.98356       -4.49162        0.28355
C          3.65788        0.71102       -0.67623
C          4.07522        1.95337       -0.25944
C          4.37624        0.02047       -1.62456
C          5.22186        2.50629       -0.78957
H          3.50870        2.48548        0.48756
C          5.52359        0.57459       -2.15576
H          4.03118       -0.94401       -1.96057
C          5.95142        1.82100       -1.74222
H          5.57189        3.47253       -0.46331
H          6.10727        0.04797       -2.89428
Pd         0.36706        0.63507       -1.33222
Cl        -1.16362        1.50252       -2.74192
Cl         1.86460        0.53773       -3.00566
H         -0.06907       -4.30202       -0.24144
H          0.06802       -1.87800       -0.63589
H          4.05091       -4.39782        0.75754
H          4.20511       -1.95282        0.37137
C         -5.51944        5.90682        1.13803
C         -3.97501        5.76859        1.01146
C         -3.25207        5.75127        2.39694
F         -5.81391        7.12950        1.60668
F         -6.04413        5.74191       -0.08529
F         -5.99130        4.96230        1.96335
F         -3.52060        6.81728        0.32113
F         -3.58274        4.62930        3.05026
F         -1.93270        5.74197        2.16141
F         -3.59553        6.83677        3.10291
C         -4.93099       -5.15741       -1.58163
C         -5.28008       -3.71556       -2.05301
C         -6.69793       -3.26898       -1.59491
F         -5.72171       -6.03372       -2.22073
F         -3.64504       -5.38258       -1.89192
F         -5.10266       -5.24995       -0.25529
F         -5.26307       -3.71178       -3.38880
F         -6.93096       -2.06199       -2.13240
F         -7.60840       -4.15401       -2.02786
F         -6.72131       -3.17990       -0.25683
C          7.07043        3.88195       -2.65644
C          7.24591        2.38245       -2.27307
C          8.35171        2.17074       -1.19941
F          6.00627        3.97068       -3.46834
F          6.85758        4.60725       -1.54966
F          8.17331        4.30668       -3.29202
F          7.61476        1.72295       -3.37465
F          8.47737        0.84875       -1.00907
F          9.50816        2.68903       -1.63894
F          7.97334        2.75790       -0.05457
C          1.32514       -5.52256        2.40460
C          1.81588       -5.83035        0.95553
C          0.83657       -6.74626        0.16711
F          0.18090       -4.82806        2.34321
F          1.15819       -6.66686        3.08118
F          2.25979       -4.76064        2.98917
F          2.99171       -6.45760        1.04009
F         -0.39456       -6.21636        0.18881
F          1.27850       -6.81813       -1.09757
F          0.83248       -7.96668        0.72597
