64
-97.21392905
Cl        -1.60480       -1.24875       -2.57583
Cl         1.42398       -2.10082       -2.69221
P          1.95459       -0.62228        0.21169
C          2.21033       -2.28484        0.98406
C          3.70456       -0.21640       -0.24013
P         -1.27046       -0.05417        0.41359
C          1.30974        0.60754        1.39836
C         -0.11347        0.86641        1.50211
C         -0.30621        1.93893        2.46837
C          1.00472        2.37427        2.91653
C          2.00432        1.55172        2.25791
H         -1.26329        2.31707        2.83209
H          1.20321        3.15888        3.65027
Pd         0.16869       -0.95128       -1.22958
H          3.08663        1.61613        2.38922
C         -4.98990        2.29284       -0.82622
C         -4.04734        2.89215       -0.01548
C         -2.91678        2.19108        0.36046
C         -2.72267        0.89993       -0.07708
C         -3.66510        0.30239       -0.88293
C         -4.80062        0.99639       -1.26016
H         -5.87250        2.83690       -1.12084
H         -4.19158        3.90467        0.32440
H         -2.17764        2.65548        0.98768
H         -3.50414       -0.70582       -1.22693
H         -5.53312        0.52585       -1.89532
C         -2.66256       -3.86406        2.46010
C         -2.35928       -2.74641        3.21344
C         -1.94431       -1.58477        2.58675
C         -1.83520       -1.55268        1.21588
C         -2.14054       -2.66136        0.46124
C         -2.55526       -3.82369        1.08358
H         -2.98525       -4.76956        2.94763
H         -2.44394       -2.77840        4.28727
H         -1.69801       -0.70412        3.15865
H         -2.05319       -2.60755       -0.61194
H         -2.79350       -4.69457        0.49527
C          3.95269       -0.38900       -1.72377
H          3.88828        0.82099        0.06901
C          4.50760       -1.21099        0.62145
H          4.73069       -0.76244        1.60079
C          3.72388       -2.53604        0.82689
H          5.48318       -1.40491        0.15174
C          1.74166       -2.27130        2.42295
H          1.62547       -3.00421        0.39451
H          4.10015       -3.07594        1.70762
H          3.90612       -3.20321       -0.02807
H          2.29541       -1.52753        2.99945
H          0.68211       -2.01713        2.49297
H          1.88822       -3.24190        2.90271
H          3.32243        0.26915       -2.32364
H          4.99367       -0.18139       -1.98144
H          3.73582       -1.41385       -2.02950
Fe         0.86728        2.50528        0.87701
C         -0.02282        4.00057       -0.20082
C         -0.02892        2.75619       -0.94904
C          1.34579        2.32381       -1.09873
C          2.20682        3.30949       -0.47179
C          1.35834        4.34555        0.09076
H         -0.90004        4.59870        0.05637
H         -0.90495        2.24936       -1.35828
H          1.67179        1.44571       -1.65719
H          3.29849        3.28639       -0.44405
H          1.69967        5.23847        0.61929
