111
-148.55658285
P         -1.59073        2.78363       -0.20448
P         -0.50987       -0.10280        0.52321
C         -1.69190        2.18041        1.50652
C         -1.28874        0.89573        1.80588
C         -0.40332        4.19419       -0.34168
C          0.79883        3.80257       -1.17477
C         -2.14794        3.00791        2.51265
H         -2.42579        4.02310        2.28099
C         -2.22336        2.53641        3.81198
H         -2.58357        3.18116        4.59694
C         -1.83250        1.24382        4.10526
H         -1.88649        0.87910        5.11780
C         -1.35314        0.42348        3.09975
H         -1.01131       -0.57668        3.31565
Pd        -1.17748        0.88265       -1.45042
Cl        -1.73372        2.09494       -3.25427
Cl        -0.70762       -1.03058       -2.52933
C         -1.25803        5.32099       -0.95628
C         -3.14450        3.60519       -0.78768
H          1.34100        2.96776       -0.72623
H          0.48948        3.48990       -2.17413
H          1.49584        4.63622       -1.28774
H         -1.06437        5.35808       -2.03708
H         -0.93849        6.29957       -0.56731
H         -3.26610        3.30107       -1.83562
C         -2.77900        5.09870       -0.71595
C         -4.36067        3.20069        0.01836
H         -0.10801        4.44612        0.68526
H         -3.05736        5.48610        0.27373
H         -3.37942        5.67420       -1.43710
H         -4.50732        2.11839       -0.00375
H         -4.25737        3.49507        1.06300
H         -5.26754        3.67340       -0.36553
C         -1.03165       -4.61163        0.86182
C          0.26794       -4.04704        0.91945
C          0.38908       -2.67200        0.81257
C         -0.71650       -1.86747        0.72114
C         -1.97824       -2.39932        0.76676
C         -2.17156       -3.76712        0.87858
O         -1.18961       -6.01868        0.74947
C          1.53982       -4.89983        1.04913
H          1.35930       -2.20836        0.78092
H         -2.81583       -1.72620        0.69862
C         -3.60465       -4.31335        0.97693
C          3.77399        1.34460       -0.00861
C          3.24495        0.36386       -0.88937
C          1.94085       -0.05517       -0.69248
C          1.20742        0.38728        0.37588
C          1.75348        1.24209        1.29678
C          3.04962        1.70918        1.15763
O          4.97515        2.02178       -0.34209
C          4.02355       -0.25846       -2.05956
H          1.45867       -0.70089       -1.40686
H          1.14308        1.56771        2.12130
C          3.61124        2.60528        2.27357
C          1.27521       -6.16897        1.87922
C          2.04260       -5.27730       -0.35264
C          2.65445       -4.11181        1.77486
C         -3.65114       -5.60929        1.80688
C         -4.52839       -3.29535        1.68381
C         -4.14811       -4.56908       -0.43705
C         -1.22724       -6.49144       -0.59134
H          0.55473       -6.82008        1.39066
H          2.19137       -6.74114        2.02325
H          0.87915       -5.90981        2.86052
H          1.30103       -5.85898       -0.89457
H          2.25433       -4.38370       -0.93901
H          2.95670       -5.86759       -0.29420
H          2.29495       -3.71813        2.72521
H          3.51039       -4.75402        1.98110
H          3.01808       -3.27964        1.17397
H         -4.67580       -5.95904        1.93034
H         -3.08738       -6.40711        1.33016
H         -3.22668       -5.44616        2.79692
H         -4.10892       -2.99232        2.64283
H         -4.68315       -2.40297        1.07930
H         -5.51070       -3.72890        1.87019
H         -5.17057       -4.94413       -0.40087
H         -4.14556       -3.64994       -1.02246
H         -3.54100       -5.29895       -0.96698
H         -2.17321       -7.00102       -0.77357
H         -1.12043       -5.66072       -1.29017
H         -0.42029       -7.20662       -0.74985
C          4.75381        3.17383       -1.13956
C          3.48409        0.30157       -3.38656
C          5.53576        0.00586       -1.96374
C          3.82976       -1.79122       -2.04278
C          2.95286        3.99276        2.19212
C          3.29124        1.97592        3.64767
C          5.14058        2.75259        2.19284
H          3.99952       -0.14573       -4.23595
H          2.41973        0.09425       -3.49334
H          3.61869        1.37995       -3.44301
H          6.07760       -0.52455       -2.74644
H          5.75817        1.06493       -2.06973
H          5.92275       -0.32194       -0.99955
H          4.42583       -2.26704       -2.82098
H          4.13632       -2.20675       -1.08331
H          2.79126       -2.06922       -2.21439
H          3.15646        4.47047        1.23578
H          1.87146        3.91693        2.30155
H          3.32418        4.64701        2.98041
H          2.21987        1.94095        3.83813
H          3.67730        0.95850        3.70350
H          3.74468        2.55232        4.45367
H          5.52709        3.30985        3.04586
H          5.43978        3.28249        1.29183
H          5.62036        1.77459        2.17958
H          5.71415        3.58785       -1.44745
H          4.17362        2.91233       -2.02295
H          4.20660        3.92384       -0.57128
