111
-148.55300874
P         -1.61485        2.80034       -0.13396
P         -0.50798       -0.09067        0.48802
C         -1.68774        2.14860        1.56121
C         -1.27085        0.85900        1.81495
C         -0.38440        4.17804       -0.22603
C          0.75949        3.80994       -1.14704
C         -2.12403        2.94365        2.60202
H         -2.40724        3.96513        2.40878
C         -2.16939        2.43349        3.88807
H         -2.51468        3.05321        4.69947
C         -1.76670        1.13485        4.13464
H         -1.79698        0.74007        5.13683
C         -1.30470        0.34773        3.09515
H         -0.95144       -0.65583        3.27365
Pd        -1.26461        0.92220       -1.44559
Cl        -2.38629        1.91795       -3.10621
Cl        -0.66546       -0.96631       -2.51179
C         -1.22190        5.38057       -0.70725
C         -3.15177        3.71091       -0.62422
H          1.48240        4.62475       -1.23177
H          1.28963        2.92408       -0.79136
H          0.38987        3.58687       -2.15004
H         -1.06021        5.51122       -1.78598
H         -0.85965        6.30986       -0.24244
H         -3.29563        3.50286       -1.69213
C         -2.74107        5.18236       -0.43755
C         -4.37093        3.27395        0.15962
H         -0.03073        4.33689        0.80108
H         -2.97941        5.49226        0.58903
H         -3.34460        5.83326       -1.08865
H         -4.24954        3.47402        1.22431
H         -5.26731        3.80314       -0.17152
H         -4.54934        2.20219        0.04642
C         -0.94882       -4.61145        0.76068
C          0.28153       -4.00062        1.11383
C          0.38089       -2.62290        1.01488
C         -0.69848       -1.86004        0.65327
C         -1.91805       -2.43521        0.41214
C         -2.08725       -3.80808        0.49399
O         -1.02986       -6.02428        0.63892
C          1.51128       -4.80815        1.55797
H          1.31570       -2.12361        1.20242
H         -2.73724       -1.79252        0.13808
C         -3.48297       -4.40325        0.25046
C          3.80171        1.30109        0.00834
C          3.26390        0.34436       -0.89003
C          1.94975       -0.05192       -0.71378
C          1.21074        0.39656        0.34764
C          1.75619        1.24459        1.27501
C          3.06202        1.68900        1.15492
O          5.06047        1.90140       -0.26124
C          4.05686       -0.22863       -2.07409
H          1.46227       -0.68658       -1.43295
H          1.13624        1.57588        2.08912
C          3.63734        2.61574        2.23692
C          2.40100       -3.97161        2.50584
C          1.09465       -6.07163        2.33246
C          2.34081       -5.19158        0.32310
C         -4.58325       -3.41517        0.70034
C         -3.65916       -4.68195       -1.25009
C         -3.68690       -5.69673        1.06014
C         -0.73383       -6.51138       -0.66408
H          3.20097       -4.58200        2.92427
H          2.87366       -3.13950        1.98594
H          1.81661       -3.57236        3.33443
H          0.52767       -6.75374        1.70390
H          1.96696       -6.61109        2.70062
H          0.47198       -5.80967        3.18724
H          2.65988       -4.30092       -0.21734
H          3.23149       -5.75053        0.60891
H          1.76497       -5.80607       -0.36441
H         -4.61648       -2.53144        0.06502
H         -5.56665       -3.88202        0.64910
H         -4.41860       -3.09371        1.72844
H         -3.54340       -3.76512       -1.82771
H         -2.91899       -5.39287       -1.60898
H         -4.64760       -5.09052       -1.45844
H         -3.52084       -5.51502        2.12144
H         -4.69891       -6.08130        0.93595
H         -2.99864       -6.47647        0.74424
H          0.10471       -7.20567       -0.61294
H         -1.59570       -7.04892       -1.05899
H         -0.48320       -5.68522       -1.33076
C          4.98487        3.07401       -1.06294
C          5.55940       -0.31293       -1.75078
C          3.58619       -1.66558       -2.39664
C          3.82584        0.65254       -3.31118
C          3.35446        4.07743        1.85786
C          2.98170        2.32875        3.60712
C          5.15102        2.39396        2.40804
H          6.11067       -0.77637       -2.56858
H          5.98639        0.67252       -1.58368
H          5.72521       -0.90505       -0.85138
H          4.22750       -2.12312       -3.14953
H          3.61715       -2.29130       -1.50526
H          2.57116       -1.68020       -2.79053
H          2.76627        0.69106       -3.56341
H          4.16108        1.67231       -3.13775
H          4.36453        0.26289       -4.17447
H          3.75157        4.75949        2.60919
H          3.80466        4.33193        0.90154
H          2.28235        4.25337        1.77649
H          3.47695        2.89149        4.39811
H          1.93151        2.61699        3.62037
H          3.05091        1.27008        3.85592
H          5.54751        3.00476        3.21871
H          5.69511        2.65492        1.50378
H          5.36238        1.34962        2.63535
H          3.94765        3.29799       -1.31429
H          5.41755        3.91522       -0.52169
H          5.55696        2.92944       -1.97921
