171
-217.83885843
P         -1.52234        0.17730       -0.29251
P          1.68978       -0.64546        0.24442
C         -0.65417        0.92533       -1.68130
C          0.96050       -1.74581       -0.98690
C          0.20101        0.13847       -2.44248
C          0.90969        0.72992       -3.50583
C          0.69480        2.06831       -3.79358
C         -0.17813        2.82748       -3.04190
C         -0.85055        2.25013       -1.98291
C          1.00152       -3.08075       -0.66016
C          0.41942       -4.01995       -1.48932
C         -0.21668       -3.60826       -2.64047
C         -0.28516       -2.26734       -2.97897
C          0.32105       -1.31139       -2.14195
Cl         0.96064       -0.41759        3.45255
Cl        -2.03815       -1.35831        2.65995
C         -1.01760       -1.87188       -4.21334
C          1.86136       -0.06543       -4.32939
H         -0.33246        3.86784       -3.27730
H         -1.53936        2.83181       -1.39450
H          1.48510       -3.38517        0.25650
H          0.45609       -5.06597       -1.23242
H          1.21405        2.51423       -4.62463
H         -0.68235       -4.33296       -3.28700
C         -4.30854       -2.99896       -1.92342
C         -3.55532       -3.28983       -0.79325
C         -2.72635       -2.29514       -0.29323
C         -2.63720       -1.07875       -0.92069
C         -3.36778       -0.81777       -2.05441
C         -4.23109       -1.77471       -2.57569
H         -4.98604       -3.74436       -2.29671
H         -2.15485       -2.45580        0.60245
H         -3.24304        0.13267       -2.54311
C         -4.04963        3.41349        1.68108
C         -4.30762        3.03509        0.37079
C         -3.52186        2.03122       -0.18117
C         -2.50889        1.44784        0.54094
C         -2.27510        1.83857        1.83896
C         -3.04983        2.82079        2.43969
H         -4.64563        4.19016        2.12401
H         -3.69174        1.70317       -1.19071
H         -1.48646        1.37278        2.39821
C          5.63389       -2.49319        1.49828
C          4.78997       -2.00743        2.49035
C          3.57929       -1.45758        2.09640
C          3.22897       -1.40518        0.77250
C          4.07096       -1.89507       -0.19562
C          5.29776       -2.44868        0.15045
H          6.58093       -2.91734        1.77429
H          2.89392       -1.06991        2.82791
H          3.75777       -1.84547       -1.22469
C          2.83367        3.60664       -0.83546
C          1.80434        3.41893        0.07995
C          1.43406        2.11448        0.38024
C          2.07363        1.05136       -0.21370
C          3.10078        1.25772       -1.10124
C          3.50627        2.54552       -1.42797
H          3.13887        4.60501       -1.08600
H          0.65099        1.92987        1.09376
H          3.59539        0.40198       -1.52572
Pd        -0.24464       -0.56148        1.55778
C         -3.30787       -5.75874       -1.15562
C         -3.66302       -4.66844       -0.12779
C         -5.10168       -4.87599        0.37774
C         -2.69844       -4.79720        1.06828
H         -2.29863       -5.61099       -1.53882
H         -3.35577       -6.74996       -0.70514
H         -3.99258       -5.74454       -2.00266
H         -5.20625       -5.84155        0.87222
H         -5.37316       -4.09907        1.09221
H         -5.81777       -4.84118       -0.44252
H         -2.76936       -5.78728        1.51812
H         -1.66491       -4.64921        0.75572
H         -2.93250       -4.06700        1.84258
C         -6.58293       -1.31241       -3.27469
C         -5.13891       -1.47993       -3.77922
C         -5.07913       -2.64054       -4.79179
C         -4.71478       -0.18745       -4.50514
H         -6.64735       -0.49592       -2.55560
H         -7.26258       -1.09315       -4.09796
H         -6.93207       -2.21932       -2.78169
H         -5.44560       -3.57026       -4.35923
H         -5.69226       -2.42304       -5.66627
H         -4.05853       -2.80757       -5.13333
H         -4.82138        0.68290       -3.85854
H         -3.67833       -0.24641       -4.83626
H         -5.33519       -0.01676       -5.38484
C         -5.07643        5.22516       -0.56804
C         -5.41980        3.73131       -0.42563
C         -6.75863        3.57151        0.31815
C         -5.57310        3.12681       -1.83565
H         -5.83937        5.74810       -1.14445
H         -5.00344        5.70824        0.40574
H         -4.12101        5.35306       -1.07686
H         -7.57206        4.03589       -0.23908
H         -6.99999        2.51718        0.45218
H         -6.72392        4.03484        1.30334
H         -6.37283        3.62341       -2.38492
H         -4.65673        3.24121       -2.41454
H         -5.81920        2.06648       -1.78163
C         -1.73402        2.41289        4.58218
C         -2.83778        3.24636        3.89985
C         -4.14794        3.04136        4.68316
C         -2.43293        4.73019        3.94423
H         -1.60944        2.71316        5.62230
H         -1.98150        1.35151        4.57239
H         -0.77381        2.54610        4.08592
H         -4.95293        3.65383        4.27903
H         -4.46362        1.99930        4.63608
H         -4.02118        3.30877        5.73206
H         -2.26991        5.05986        4.97013
H         -1.51136        4.89406        3.38764
H         -3.20418        5.36377        3.50766
C          4.07473       -2.87228        4.73185
C          5.14281       -2.05244        3.98378
C          5.17460       -0.61652        4.53958
C          6.51817       -2.70281        4.22645
H          4.30716       -2.93882        5.79447
H          3.08847       -2.41989        4.63492
H          4.01842       -3.88519        4.33384
H          5.90711       -0.01270        4.00433
H          4.20411       -0.13197        4.43874
H          5.44039       -0.61286        5.59647
H          6.75072       -2.72936        5.29098
H          6.53707       -3.72878        3.85927
H          7.31029       -2.14238        3.73022
C          6.55885       -4.47287       -0.62808
C          6.27535       -2.98502       -0.90478
C          7.58718       -2.18212       -0.83411
C          5.70080       -2.85536       -2.32974
H          7.23450       -4.88686       -1.37638
H          7.01826       -4.61432        0.34944
H          5.63506       -5.05074       -0.65064
H          8.29698       -2.52719       -1.58574
H          7.39948       -1.12268       -1.00803
H          8.06028       -2.28189        0.14210
H          6.40322       -3.24422       -3.06682
H          4.77208       -3.41676       -2.43094
H          5.50414       -1.81329       -2.58101
C         -0.37677        4.60647        0.47717
C          1.12533        4.59047        0.80678
C          1.72544        5.94725        0.39041
C          1.32222        4.41758        2.32433
H         -0.88389        5.41922        0.99646
H         -0.53371        4.74465       -0.59184
H         -0.85298        3.67397        0.77264
H          1.59283        6.12389       -0.67686
H          1.23771        6.76431        0.92201
H          2.78969        5.99309        0.62071
H          0.87919        5.24761        2.87398
H          0.86275        3.49662        2.67949
H          2.38272        4.37739        2.57196
C          5.74475        3.65902       -1.63483
C          4.68771        2.81449       -2.37153
C          4.18885        3.57628       -3.61143
C          5.35664        1.50396       -2.83240
H          5.34511        4.62846       -1.34001
H          6.08453        3.14840       -0.73390
H          6.61278        3.83714       -2.26937
H          3.45209        2.98624       -4.15410
H          3.72303        4.52126       -3.33411
H          5.01138        3.79491       -4.29220
H          5.73179        0.93624       -1.98099
H          4.65760        0.87666       -3.38387
H          6.20121        1.71056       -3.48956
H         -1.19809       -0.79695       -4.24742
H          2.30505       -0.87456       -3.74697
H         -1.98668       -2.36918       -4.25865
H         -0.45650       -2.15023       -5.10652
H          2.67505        0.55780       -4.70253
H          1.35833       -0.50527       -5.19132
