111
-148.55364867
P         -2.51638        2.15256        0.86367
P          0.07831        0.37004        0.52203
C         -1.48924        1.77264        2.30853
C         -0.33962        1.03069        2.14603
C         -3.20616        3.86834        0.94660
C         -2.50050        4.79681       -0.01749
C         -1.85375        2.20964        3.56599
H         -2.76427        2.77221        3.69179
C         -1.05671        1.90897        4.65720
H         -1.34036        2.24982        5.63954
C          0.09958        1.17114        4.48974
H          0.71882        0.93572        5.33961
C          0.45752        0.72679        3.22949
H          1.34879        0.13694        3.08184
Pd        -1.28785        1.49221       -0.97757
Cl        -2.88840        2.41313       -2.24608
Cl         0.15831        0.83555       -2.56972
C         -4.70253        3.64980        0.65515
C         -4.08273        1.17010        0.79598
H         -2.61185        4.44731       -1.04473
H         -2.90876        5.80897        0.03172
H         -1.43018        4.85115        0.19548
H         -4.87410        3.78194       -0.42205
H         -5.30759        4.42566        1.14848
H         -4.16835        0.80576       -0.23659
C         -5.16609        2.22694        1.08075
C         -4.04972        0.01431        1.77224
H         -3.06587        4.20979        1.98006
H         -5.39183        2.22138        2.15600
H         -6.10766        1.95444        0.58016
H         -3.90152        0.37260        2.79264
H         -4.98250       -0.55401        1.75129
H         -3.23064       -0.67091        1.54322
C         -1.20109       -3.98164        0.11288
C         -1.24869       -3.36163        1.38844
C         -0.84660       -2.04032        1.49163
C         -0.48839       -1.32391        0.38001
C         -0.55461       -1.88576       -0.86703
C         -0.93983       -3.20238       -1.04264
O         -1.37333       -5.38674       -0.00179
C         -1.68948       -4.11157        2.65526
H         -0.79428       -1.55434        2.44961
H         -0.28413       -1.27163       -1.70810
C         -1.02718       -3.76615       -2.46885
C          4.46934        0.72412       -0.62362
C          3.84311       -0.54804       -0.60611
C          2.50738       -0.61362       -0.25012
C          1.82017        0.50550        0.14040
C          2.44560        1.72156        0.22029
C          3.78327        1.85774       -0.11575
O          5.76650        0.86767       -1.18400
C          4.56826       -1.84104       -1.01065
H          1.97573       -1.54766       -0.29334
H          1.86531        2.57121        0.53716
C          4.45408        3.23198        0.03619
C         -0.46399       -4.76732        3.30929
C         -2.33013       -3.13973        3.67234
C         -2.75028       -5.17796        2.32696
C         -2.09615       -4.86924       -2.56692
C         -1.43183       -2.65685       -3.46728
C          0.34654       -4.31814       -2.87959
C         -0.16222       -6.12636        0.09293
H         -0.74407       -5.29866        4.21852
H          0.00823       -5.47910        2.63646
H          0.28026       -4.01606        3.57262
H         -2.74389       -3.68561        4.51993
H         -1.60332       -2.43393        4.07154
H         -3.14057       -2.57568        3.21215
H         -3.10971       -5.66528        3.23295
H         -3.60422       -4.72691        1.82261
H         -2.34836       -5.95026        1.67586
H         -1.84223       -5.72484       -1.94636
H         -3.06492       -4.49442       -2.23831
H         -2.19960       -5.22468       -3.59181
H         -2.33779       -2.14942       -3.13693
H         -0.64636       -1.91187       -3.58446
H         -1.62377       -3.07591       -4.45464
H          0.31944       -4.71952       -3.89226
H          1.10138       -3.53287       -2.84804
H          0.66864       -5.11288       -2.21088
H          0.68167       -5.45573        0.26026
H         -0.23152       -6.83619        0.91708
H         -0.00258       -6.68795       -0.82731
C          5.76612        1.15755       -2.57635
C          4.41091       -2.05820       -2.52338
C          6.05911       -1.78144       -0.63262
C          3.96414       -3.06030       -0.27560
C          4.26586        4.03401       -1.26055
C          3.81767        4.02286        1.20195
C          5.95233        3.08812        0.35996
H          4.89538       -2.98215       -2.83807
H          3.35749       -2.11878       -2.79562
H          4.85034       -1.23941       -3.08758
H          6.17705       -1.58929        0.43329
H          6.56042       -2.72048       -0.86576
H          6.57419       -0.99081       -1.17245
H          4.55852       -3.95528       -0.45815
H          3.93734       -2.89041        0.80043
H          2.95183       -3.27614       -0.61450
H          3.20688        4.16362       -1.48267
H          4.71742        5.02228       -1.17792
H          4.72051        3.52653       -2.10783
H          3.81840        3.43153        2.11727
H          4.37320        4.94020        1.39567
H          2.79142        4.31217        0.98091
H          6.09495        2.48424        1.25547
H          6.41164        4.06153        0.53026
H          6.49080        2.60920       -0.45382
H          6.31758        0.38429       -3.11092
H          4.74392        1.20382       -2.95434
H          6.26262        2.11162       -2.75225
