105
-153.06020803
Cl         0.27787        2.77475        2.65878
Pd        -0.32938        1.57099        0.84391
P         -0.96297        0.47302       -1.16234
N         -0.32358       -0.96574       -1.96088
C          0.40470       -2.08304       -1.55310
C          0.33489       -2.62652       -0.24908
C          1.11402       -3.75440        0.08016
C          0.95581       -4.37883        1.44698
C          1.51096       -5.80768        1.54657
C          2.90308       -5.89224        0.91354
C          2.85359       -5.50159       -0.57209
C          1.97233       -4.31348       -0.86990
C          2.00090       -3.78256       -2.15352
C          1.22536       -2.70448       -2.49294
H          1.27119       -2.29639       -3.48767
H          2.64906       -4.23009       -2.88799
H          3.86496       -5.28901       -0.94190
H          3.58341       -5.21524        1.44561
H          1.53528       -6.14800        2.59148
H          1.45268       -3.74484        2.18922
C         -0.66696       -2.13395        0.72442
C         -0.23568       -1.40216        1.86002
C         -1.18154       -1.05515        2.82823
C         -2.48644       -1.46178        2.71340
C         -2.91791       -2.21058        1.62345
C         -4.34930       -2.69043        1.60302
C         -4.81181       -3.24527        0.24523
C         -3.72996       -4.12439       -0.38892
C         -2.43320       -3.32803       -0.59609
C         -2.01009       -2.52942        0.61170
H         -1.61838       -4.00473       -0.88245
H         -4.08207       -4.55277       -1.33802
H         -5.03919       -2.41355       -0.43186
H         -5.00324       -1.86887        1.92068
H         -3.19567       -1.20792        3.48288
H         -0.85873       -0.47616        3.67551
N          1.11628       -1.02527        2.02623
P          1.66909        0.36677        1.11044
C          2.54422       -0.03782       -0.39219
C          2.33144        0.74024       -1.50341
C          3.02641        0.47389       -2.66882
C          3.93890       -0.57072       -2.72410
C          4.16373       -1.32285       -1.57894
C          3.46761       -1.05591       -0.41396
H          3.64525       -1.63693        0.47658
H          4.88242       -2.12398       -1.60693
C          4.68994       -0.85606       -3.97736
H          2.86472        1.07889       -3.54432
H          1.62804        1.55547       -1.45333
C          2.72191        1.41782        2.10483
C          2.87925        1.12618        3.43754
C          3.67281        1.93731        4.22898
C          4.31582        3.04113        3.68419
C          4.13566        3.32236        2.33599
C          3.34139        2.51019        1.54676
H          3.19727        2.72555        0.49990
H          4.61698        4.18553        1.90899
C          5.14386        3.93467        4.54051
H          3.79103        1.72127        5.27698
H          2.36835        0.27150        3.85141
H          1.82791       -1.69829        1.76701
H         -0.59508       -0.91691       -2.93546
C         -0.71357        1.83830       -2.32118
C         -1.22596        3.08228       -2.04022
C         -1.04665        4.12722       -2.92595
C         -0.35459        3.93517       -4.11304
C          0.16218        2.67618       -4.38342
C         -0.02391        1.63397       -3.49409
H          0.38815        0.66307       -3.70827
H          0.71386        2.51755       -5.29435
C         -0.13293        5.06676       -5.05532
H         -1.44084        5.10262       -2.69700
H         -1.75726        3.23561       -1.11654
C         -2.74744        0.27599       -1.08381
C         -3.40067        0.08638       -2.27924
C         -4.78011       -0.02405       -2.30490
C         -5.51673        0.06261       -1.13194
C         -4.84175        0.26680        0.06285
C         -3.46278        0.35820        0.08621
H         -2.94018        0.50185        1.01785
H         -5.40399        0.35738        0.97644
C         -7.00278       -0.02604       -1.15551
H         -5.29315       -0.16818       -3.24032
H         -2.82915        0.03908       -3.19330
Cl        -2.24359        2.77528        0.92775
H          2.49878       -6.35331       -1.16473
H          0.83380       -6.49759        1.02750
H          3.32878       -6.89761        1.04093
H         -0.10693       -4.36921        1.72034
H         -3.52904       -4.98192        0.26543
H         -2.55166       -2.63953       -1.44109
H         -4.46312       -3.46406        2.37181
H         -5.75355       -3.80220        0.35091
H          4.92500       -1.91810       -4.06126
H          4.10823       -0.57622       -4.85685
H          5.62794       -0.29981       -4.00244
H          5.60544        3.37964        5.35839
H          5.94407        4.40166        3.96463
H          4.53378        4.72817        4.97413
H          0.78806        5.59828       -4.81202
H         -0.05585        4.71309       -6.08443
H         -0.95570        5.78178       -5.01224
H         -7.38170       -0.50645       -0.25225
H         -7.44865        0.96728       -1.22109
H         -7.35003       -0.60836       -2.01012
