171
-217.83857198
P         -1.51821        0.21010       -0.20086
P          1.68738       -0.65995        0.19895
C         -0.72858        0.74820       -1.72688
C          0.85080       -1.88058       -0.83525
C          0.02058       -0.16829       -2.45441
C          0.65410        0.25494       -3.63894
C          0.47210        1.55932       -4.06966
C         -0.28744        2.45084       -3.34108
C         -0.88435        2.03963       -2.16609
C          0.90744       -3.16872       -0.35699
C          0.25884       -4.18978       -1.02373
C         -0.46508       -3.90401       -2.16069
C         -0.55553       -2.60980       -2.64485
C          0.12668       -1.57284       -1.98102
Cl         1.15915       -0.23597        3.43509
Cl        -1.92960       -1.01472        2.87089
C         -1.38916       -2.35112       -3.84957
C          1.49713       -0.67800       -4.43613
H         -0.41200        3.46483       -3.68448
H         -1.47882        2.72810       -1.59121
H          1.45905       -3.37169        0.54930
H          0.31203       -5.19988       -0.65168
H          0.92866        1.87321       -4.99274
H         -0.98164       -4.69203       -2.68237
C         -4.54130       -2.98150       -1.30625
C         -3.67151       -3.22158       -0.24980
C         -2.76984       -2.22198        0.08980
C         -2.73054       -1.04619       -0.61557
C         -3.58311       -0.83503       -1.67216
C         -4.52356       -1.79377       -2.02844
H         -5.25354       -3.74292       -1.56266
H         -2.09240       -2.35129        0.91412
H         -3.50428        0.07730       -2.23791
C         -3.75461        3.75212        1.62242
C         -4.04542        3.34203        0.32765
C         -3.36283        2.24147       -0.17506
C         -2.38986        1.60924        0.56120
C         -2.11550        2.04217        1.83761
C         -2.79842        3.11088        2.39853
H         -4.29153        4.58233        2.03870
H         -3.59531        1.87417       -1.15854
H         -1.37407        1.53858        2.42875
C          5.65760       -2.50766        1.38450
C          5.20360       -2.63876        0.07664
C          3.98066       -2.06529       -0.24716
C          3.24650       -1.39783        0.70210
C          3.70999       -1.28124        1.98649
C          4.92742       -1.83320        2.35669
H          6.59989       -2.94459        1.65321
H          3.58879       -2.15030       -1.24737
H          3.10224       -0.77162        2.71155
C          2.82140        3.41084       -1.43889
C          1.87883        3.35362       -0.41884
C          1.51412        2.10048        0.05692
C          2.06947        0.96140       -0.47799
C          3.01248        1.03942       -1.47328
C          3.41338        2.27296       -1.97180
H          3.12443        4.36729       -1.82102
H          0.80719        2.01578        0.86335
H          3.44611        0.12750       -1.84501
Pd        -0.15227       -0.40089        1.62817
C         -5.12304       -4.67814        1.18093
C         -3.73955       -4.54846        0.51892
C         -2.66171       -4.62239        1.61911
C         -3.51707       -5.71800       -0.45736
H         -5.30188       -3.84628        1.86195
H         -5.91892       -4.67851        0.43705
H         -5.19787       -5.60392        1.75109
H         -2.71131       -5.57481        2.14643
H         -1.66194       -4.53107        1.19539
H         -2.79748       -3.83110        2.35600
H         -4.28201       -5.74004       -1.23251
H         -2.54741       -5.63119       -0.94614
H         -3.54576       -6.67349        0.06607
C         -4.75765       -1.28927       -4.48503
C         -5.51761       -1.49597       -3.16246
C         -6.30037       -0.21445       -2.82032
C         -6.52535       -2.64578       -3.35304
H         -5.44494       -1.03430       -5.29158
H         -4.02930       -0.48341       -4.40190
H         -4.22915       -2.19652       -4.77428
H         -6.80879       -0.31761       -1.86188
H         -5.63593        0.64633       -2.75951
H         -7.05144        0.00000       -3.58039
H         -6.01807       -3.57168       -3.62354
H         -7.10005       -2.81802       -2.44317
H         -7.23133       -2.41284       -4.15014
C         -6.36049        3.11912       -0.58518
C         -5.12009        4.02652       -0.52915
C         -4.58159        4.26044       -1.95534
C         -5.52727        5.39310        0.05635
H         -6.10976        2.14303       -0.99745
H         -6.76867        2.96219        0.41307
H         -7.14097        3.55880       -1.20589
H         -5.30634        4.80559       -2.55979
H         -3.66017        4.84201       -1.92824
H         -4.37220        3.32152       -2.46586
H         -6.23720        5.89815       -0.59861
H         -6.00617        5.28120        1.02865
H         -4.65917        6.04226        0.17047
C         -2.82932        2.31827        4.77341
C         -2.49947        3.50772        3.85172
C         -3.33678        4.72199        4.29617
C         -1.00935        3.86738        3.99023
H         -2.22292        1.44714        4.52771
H         -2.64413        2.56963        5.81743
H         -3.87637        2.03335        4.67392
H         -4.40328        4.50383        4.24442
H         -3.10640        4.99395        5.32620
H         -3.12944        5.59059        3.67131
H         -0.77397        4.16852        5.01077
H         -0.37233        3.01995        3.74033
H         -0.75196        4.69305        3.32787
C          5.13339       -4.57909       -1.50653
C          5.98482       -3.39727       -1.00583
C          7.31957       -3.94782       -0.46816
C          6.28677       -2.44463       -2.17761
H          4.19608       -4.23511       -1.94264
H          5.66591       -5.14922       -2.26754
H          4.89158       -5.25402       -0.68574
H          7.15431       -4.64790        0.35058
H          7.86170       -4.47885       -1.25056
H          7.96090       -3.14201       -0.11152
H          6.86404       -1.58578       -1.83584
H          6.86120       -2.95018       -2.95364
H          5.36922       -2.07361       -2.63272
C          6.77467       -2.35573        4.03096
C          5.40451       -1.68722        3.80882
C          4.37839       -2.34966        4.74733
C          5.52862       -0.19112        4.15287
H          7.09840       -2.23897        5.06516
H          6.72926       -3.42379        3.81895
H          7.53753       -1.90785        3.39437
H          4.25707       -3.40444        4.50183
H          4.69748       -2.27879        5.78693
H          3.40198       -1.87350        4.66587
H          6.23131        0.30131        3.48100
H          4.56883        0.31640        4.06340
H          5.88385       -0.05361        5.17394
C          1.77043        4.64078        1.71901
C          1.31471        4.61728        0.24883
C         -0.22223        4.60658        0.17977
C          1.81541        5.90210       -0.43901
H          1.39176        5.52402        2.23286
H          1.41747        3.76038        2.25408
H          2.85824        4.65322        1.78366
H         -0.64366        5.47315        0.68884
H         -0.56061        4.63136       -0.85516
H         -0.63159        3.71490        0.64903
H          1.39047        6.78541        0.03768
H          2.90021        5.98544       -0.37635
H          1.52556        5.92190       -1.48952
C          5.11207        1.04027       -3.41087
C          4.51117        2.40920       -3.03724
C          5.64511        3.29619       -2.48829
C          3.92006        3.05100       -4.30407
H          4.35497        0.37662       -3.82622
H          5.89714        1.15237       -4.15852
H          5.55268        0.55877       -2.53830
H          6.05277        2.87382       -1.56999
H          6.45735        3.38146       -3.20998
H          5.29205        4.30242       -2.26640
H          3.13214        2.42513       -4.71948
H          3.49299        4.02997       -4.08939
H          4.68502        3.17935       -5.06969
H         -0.88477       -2.69107       -4.75507
H          1.93994       -1.44861       -3.80303
H         -1.61255       -1.28959       -3.96202
H         -2.33793       -2.88390       -3.77581
H          2.31254       -0.14688       -4.92891
H          0.90820       -1.17166       -5.20995
