111
-148.55425853
P         -2.53434        2.03769        0.69479
P          0.16505        0.38876        0.46479
C         -1.48941        1.81082        2.15867
C         -0.29601        1.13092        2.04522
C         -3.35010        3.69975        0.68945
C         -2.69531        4.64158       -0.29726
C         -1.89138        2.29678        3.38651
H         -2.83589        2.80809        3.47463
C         -1.08978        2.10728        4.49892
H         -1.40280        2.48712        5.45777
C          0.10674        1.42665        4.38297
H          0.72824        1.27351        5.24985
C          0.50112        0.93090        3.15351
H          1.41980        0.37422        3.05288
Pd        -1.26520        1.32540       -1.09799
Cl        -2.87977        2.17674       -2.40697
Cl        -0.01393        0.55061       -2.79414
C         -4.81890        3.35585        0.38027
C         -4.02396        0.93873        0.67132
H         -3.17889        5.62119       -0.29533
H         -1.63694        4.78445       -0.06670
H         -2.75803        4.24695       -1.31196
H         -4.97326        3.41611       -0.70593
H         -5.49065        4.11045        0.81711
H         -4.06574        0.50550       -0.33709
C         -5.18697        1.92765        0.87592
C         -3.92402       -0.14924        1.71876
H         -3.26005        4.09309        1.70988
H         -5.43606        1.96422        1.94536
H         -6.09485        1.55986        0.37410
H         -3.81714        0.28164        2.71596
H         -4.81394       -0.78284        1.72361
H         -3.05584       -0.78807        1.54296
C         -1.25154       -3.94825        0.44634
C         -1.07999       -3.26537        1.67744
C         -0.60711       -1.96433        1.64558
C         -0.37851       -1.32129        0.45717
C         -0.64539       -1.94359       -0.73355
C         -1.11532       -3.24381       -0.77660
O         -1.53442       -5.34019        0.43783
C         -1.38812       -3.91681        3.03512
H         -0.41871       -1.42805        2.55837
H         -0.49154       -1.38489       -1.63927
C         -1.46073       -3.86885       -2.13736
C          4.54964        0.89737       -0.67940
C          3.76913       -0.12147       -1.28125
C          2.44367       -0.24296       -0.90018
C          1.90237        0.56459        0.06513
C          2.67601        1.49531        0.70922
C          4.01718        1.65097        0.39811
O          5.84772        1.18492       -1.17920
C          4.31797       -1.05078       -2.37473
H          1.80154       -0.96175       -1.37739
H          2.21334        2.11090        1.46041
C          4.86329        2.63794        1.21866
C         -0.13193       -4.63351        3.55243
C         -1.80824       -2.85030        4.07286
C         -2.55740       -4.91131        2.91791
C         -1.91077       -2.78073       -3.13971
C         -0.21898       -4.57261       -2.70485
C         -2.62476       -4.86770       -2.00678
C         -0.37839       -6.16773        0.41145
H          0.69259       -3.93028        3.66749
H         -0.31789       -5.09736        4.52081
H          0.19026       -5.41095        2.86404
H         -2.14440       -3.32131        4.99630
H         -0.98097       -2.19198        4.33387
H         -2.62682       -2.23976        3.69312
H         -2.81856       -5.32582        3.89129
H         -3.44003       -4.41906        2.51080
H         -2.30728       -5.74241        2.26319
H         -2.28274       -3.23165       -4.05929
H         -2.71021       -2.17153       -2.71869
H         -1.08880       -2.12266       -3.41748
H         -0.43333       -5.02121       -3.67449
H          0.59875       -3.86453       -2.83439
H          0.12746       -5.35963       -2.03948
H         -2.91240       -5.26397       -2.98026
H         -2.35518       -5.71065       -1.37534
H         -3.49634       -4.38517       -1.56573
H         -0.40008       -6.79766       -0.47765
H          0.52626       -5.55839        0.40429
H         -0.37345       -6.81646        1.28719
C          5.87270        2.19355       -2.18156
C          4.11338       -0.38989       -3.74665
C          5.80909       -1.35616       -2.14659
C          3.57222       -2.40491       -2.36889
C          4.34398        2.71973        2.67272
C          6.33177        2.18146        1.29577
C          4.77468        4.03505        0.58658
H          4.47538       -1.03283       -4.54847
H          3.05643       -0.19113       -3.92317
H          4.64232        0.55773       -3.81083
H          6.18254       -2.06143       -2.88862
H          6.41373       -0.45533       -2.21599
H          5.96538       -1.78817       -1.15873
H          2.53835       -2.29411       -2.69199
H          4.04549       -3.11049       -3.05135
H          3.57677       -2.84751       -1.37313
H          5.01529        3.31606        3.29026
H          3.36192        3.18710        2.72604
H          4.27568        1.72656        3.11597
H          6.91576        2.84528        1.93278
H          6.39905        1.17362        1.70411
H          6.79820        2.17441        0.31399
H          5.14866        4.03098       -0.43438
H          5.35777        4.75859        1.15576
H          3.74155        4.38063        0.55928
H          6.31066        1.79012       -3.09441
H          4.86246        2.54888       -2.38870
H          6.49059        3.02707       -1.84814
