111
-148.55313366
P         -2.52876        2.12116        0.88381
P          0.08692        0.35297        0.52147
C         -1.48682        1.74217        2.31860
C         -0.33173        1.01018        2.14764
C         -3.23017        3.83131        0.97788
C         -2.53096        4.77118        0.02012
C         -1.84742        2.17337        3.57916
H         -2.76211        2.72763        3.71163
C         -1.04139        1.87784        4.66512
H         -1.32225        2.21444        5.64975
C          0.12034        1.15079        4.48929
H          0.74684        0.91946        5.33496
C          0.47435        0.71176        3.22606
H          1.36985        0.12990        3.07231
Pd        -1.30177        1.47153       -0.96022
Cl        -2.90378        2.40391       -2.21847
Cl         0.14008        0.81063       -2.55593
C         -4.72482        3.60308        0.68522
C         -4.08751        1.12687        0.81988
H         -2.64008        4.42822       -1.00953
H         -2.94586        5.78025        0.07645
H         -1.46097        4.83109        0.23331
H         -4.89685        3.73690       -0.39172
H         -5.33548        4.37333        1.18045
H         -4.17263        0.76156       -0.21239
C         -5.17827        2.17565        1.10699
C         -4.04272       -0.02833        1.79652
H         -3.09251        4.16714        2.01352
H         -5.40430        2.16580        2.18214
H         -6.11777        1.89791        0.60541
H         -4.97076       -0.60444        1.77771
H         -3.21829       -0.70687        1.56642
H         -3.89555        0.33170        2.81647
C         -1.17442       -4.00593        0.12083
C         -1.19985       -3.38980        1.39884
C         -0.80114       -2.06713        1.49817
C         -0.46660       -1.34588        0.38224
C         -0.55597       -1.90441       -0.86489
C         -0.93972       -3.22186       -1.03711
O         -1.34150       -5.41160        0.00573
C         -1.61396       -4.14493        2.67154
H         -0.73419       -1.58338        2.45637
H         -0.30590       -1.28700       -1.70965
C         -1.05582       -3.78033       -2.46339
C          4.45900        0.79676       -0.66278
C          3.83439       -0.47457       -0.73035
C          2.50504       -0.56963       -0.35744
C          1.82364        0.51534        0.12785
C          2.44948        1.72325        0.28878
C          3.78130        1.88696       -0.05785
O          5.74442        0.98755       -1.23587
C          4.55068       -1.73179       -1.24752
H          1.97322       -1.49844       -0.46350
H          1.87389        2.54550        0.67825
C          4.45512        3.24600        0.18820
C         -0.37346       -4.79553        3.30196
C         -2.24181       -3.17851        3.70170
C         -2.67440       -5.21670        2.35988
C          0.31270       -4.31790       -2.90914
C         -2.11670       -4.89284       -2.54148
C         -1.49450       -2.67027       -3.44647
C         -0.12423       -6.14415        0.07193
H          0.37170       -4.04097        3.55297
H         -0.63419       -5.32983        4.21520
H          0.08982       -5.50383        2.61921
H         -3.06254       -2.61715        3.25662
H         -2.63847       -3.72826        4.55496
H         -1.51166       -2.47014        4.09010
H         -3.01690       -5.70605        3.27131
H         -3.53852       -4.77003        1.86915
H         -2.27871       -5.98685        1.70240
H          0.26454       -4.71731       -3.92180
H          1.06050       -3.52538       -2.89449
H          0.65871       -5.11098       -2.25036
H         -2.24362       -5.24226       -3.56581
H         -1.83867       -5.75026       -1.93390
H         -3.07999       -4.52957       -2.18499
H         -0.71942       -1.91690       -3.57821
H         -1.70544       -3.08644       -4.43118
H         -2.39739       -2.17349       -3.09240
H          0.02090       -6.69910       -0.85473
H          0.71856       -5.46915        0.22669
H         -0.17281       -6.85916        0.89310
C          5.71489        1.37836       -2.60302
C          4.34393       -1.84192       -2.76595
C          6.05306       -1.69252       -0.91519
C          3.97471       -3.00242       -0.58009
C          5.95720        3.07719        0.48062
C          4.25186        4.14359       -1.04187
C          3.83456        3.94719        1.41812
H          4.75685       -0.97966       -3.28379
H          4.82511       -2.73563       -3.16236
H          3.28236       -1.89413       -3.00670
H          6.20565       -1.57381        0.15700
H          6.54795       -2.61132       -1.22885
H          6.54919       -0.86483       -1.41558
H          3.98591       -2.90908        0.50552
H          2.95132       -3.19804       -0.89686
H          4.56357       -3.87983       -0.84657
H          6.42015        4.03460        0.71839
H          6.11049        2.40695        1.32575
H          6.48410        2.66115       -0.37436
H          3.19041        4.29054       -1.24007
H          4.70629        5.12240       -0.89072
H          4.69513        3.70116       -1.93061
H          3.84721        3.28923        2.28669
H          2.80554        4.25148        1.23289
H          4.39288        4.84790        1.67236
H          6.23966        0.63848       -3.20712
H          4.68465        1.46730       -2.95028
H          6.22281        2.33540       -2.72094
