75
-122.80548911
P          1.86967       -0.11303       -0.07874
C          3.28338       -0.55278       -1.10415
C          3.31729       -0.11978       -2.40946
C          4.40784       -0.42250       -3.20465
C          5.45803       -1.15167       -2.68307
C          5.42200       -1.57676       -1.36979
C          4.33029       -1.27314       -0.57749
H          4.29072       -1.59334        0.45087
H          6.24180       -2.14534       -0.96251
H          6.30712       -1.39028       -3.30255
H          4.43538       -0.09118       -4.22966
H          2.48959        0.45099       -2.80048
C          1.83170       -1.12508        1.41261
C          1.77639       -0.53726        2.65558
C          1.76269       -1.32537        3.79137
C          1.79972       -2.70070        3.67513
C          1.84508       -3.28837        2.42689
C          1.85976       -2.49533        1.29566
H          1.88140       -2.93613        0.31279
H          1.86338       -4.36168        2.33318
H          1.78400       -3.31634        4.55962
H          1.71517       -0.86585        4.76490
H          1.72664        0.53605        2.73226
C          2.18764        1.60087        0.37421
C          3.36435        2.25747        0.09508
C          3.53907        3.58366        0.46605
C          2.49165        4.24149        1.10968
C          1.31073        3.59353        1.39733
C          1.15934        2.24539        1.03486
O         -0.01488        1.53159        1.29677
C         -1.20205        2.22918        1.05043
C         -1.36868        3.57081        1.43114
C         -2.56775        4.20080        1.18219
C         -3.61235        3.53720        0.54102
C         -3.42331        2.21817        0.15267
C         -2.22823        1.57815        0.39190
P         -1.88852       -0.10989       -0.14480
C         -1.78818       -1.19654        1.28882
C         -1.69480       -0.67588        2.55876
C         -1.62125       -1.52518        3.64703
C         -1.63379       -2.89247        3.45476
C         -1.71512       -3.41173        2.17805
C         -1.79172       -2.55887        1.09283
H         -1.84457       -2.94612        0.08744
H         -1.71399       -4.47847        2.02594
H         -1.56995       -3.55542        4.30210
H         -1.54381       -1.11941        4.64228
H         -1.65969        0.39258        2.69190
C         -3.33122       -0.53288       -1.14089
C         -3.49942        0.09658       -2.35288
C         -4.61638       -0.17673       -3.12178
C         -5.56136       -1.07436       -2.66655
C         -5.39398       -1.69561       -1.44498
C         -4.27628       -1.42014       -0.67936
H         -4.14290       -1.88812        0.28171
H         -6.13292       -2.39393       -1.08775
H         -6.43094       -1.29038       -3.26557
H         -4.74597        0.30877       -4.07501
H         -2.75223        0.79631       -2.69369
Pd         0.01640       -1.13760       -1.21121
Cl        -1.45721       -2.00469       -2.66980
Cl         1.56302       -2.62376       -1.92187
H         -4.21806        1.69189       -0.34588
C         -4.91290        4.21844        0.30284
H         -5.40143        3.83097       -0.59223
H         -4.77577        5.29195        0.16668
H         -5.58806        4.06913        1.14635
H         -2.69466        5.22431        1.48806
S         -0.02611        4.42047        2.21844
H          2.60254        5.27471        1.38778
C          4.79993        4.30168        0.13963
H          4.15355        1.73802       -0.41942
H          5.65011        3.61831        0.13003
H          4.73446        4.77150       -0.84252
H          5.00999        5.08126        0.87305
