111
-148.55644093
P         -1.51845        2.69668        0.99151
P         -0.56145       -0.25764        0.40854
C         -1.31187        1.53109        2.36453
C         -0.97347        0.22003        2.10277
C         -0.29192        4.07727        1.09160
C          0.68682        4.01153       -0.06161
C         -1.47462        1.95489        3.66786
H         -1.70421        2.98921        3.86579
C         -1.32187        1.05552        4.70873
H         -1.45226        1.38464        5.72673
C         -0.99874       -0.26148        4.44435
H         -0.87604       -0.96111        5.25472
C         -0.81470       -0.67770        3.13828
H         -0.53298       -1.69501        2.92026
Pd        -1.58507        1.37290       -0.89492
Cl        -2.30290        3.14665       -2.06284
Cl        -1.53753       -0.04075       -2.63831
C         -1.17586        5.34068        1.09638
C         -3.09882        3.65866        1.07807
H          1.25783        3.08150       -0.04811
H          0.16009        4.05663       -1.01694
H          1.39611        4.84192       -0.03253
H         -1.20735        5.75033        0.07746
H         -0.71688        6.12692        1.71459
H         -3.45565        3.73505        0.04234
C         -2.62559        5.03754        1.57143
C         -4.14500        2.99076        1.94498
H          0.22223        3.95984        2.05437
H         -2.66635        5.05601        2.66916
H         -3.32132        5.82251        1.23748
H         -5.07650        3.56124        1.95512
H         -4.36889        1.98268        1.58865
H         -3.80461        2.90432        2.97719
C         -0.72266       -4.76847       -0.20189
C         -1.67490       -3.94309       -0.85340
C         -1.62486       -2.57760       -0.62641
C         -0.63331       -2.02519        0.14068
C          0.35833       -2.80637        0.67532
C          0.36142       -4.18003        0.49774
O         -0.86928       -6.18110       -0.22604
C         -2.75170       -4.50651       -1.79467
H         -2.35322       -1.91861       -1.06518
H          1.13914       -2.32156        1.23636
C          1.51686       -5.00802        1.08172
C          3.62293        1.31887       -0.46734
C          3.15651        1.26060        0.87088
C          1.89803        0.73412        1.10569
C          1.09819        0.33029        0.06950
C          1.50587        0.47284       -1.23026
C          2.74406        1.00893       -1.53667
O          4.97521        1.66344       -0.73123
C          3.99929        1.75040        2.05816
H          1.52023        0.63822        2.10817
H          0.81644        0.18989       -2.00658
C          3.09991        1.26383       -3.00963
C         -2.24579       -5.76344       -2.52595
C         -4.01487       -4.83699       -0.98585
C         -3.11818       -3.47140       -2.88315
C          1.80981       -6.24209        0.20924
C          2.81712       -4.17300        1.13238
C          1.15817       -5.44293        2.51071
C         -1.66151       -6.70036        0.83447
H         -2.98331       -6.12364       -3.24272
H         -1.32459       -5.54780       -3.06620
H         -2.04195       -6.57289       -1.82945
H         -4.39856       -3.94595       -0.48951
H         -4.80044       -5.22853       -1.63162
H         -3.80897       -5.57994       -0.21906
H         -3.63947       -2.61211       -2.46434
H         -2.22475       -3.11321       -3.39390
H         -3.77753       -3.91186       -3.63059
H          0.96379       -6.92468        0.19096
H          2.02137       -5.94459       -0.81726
H          2.67012       -6.79403        0.58702
H          2.75041       -3.36578        1.86041
H          3.66459       -4.79412        1.42162
H          3.03773       -3.73901        0.15741
H          0.25806       -6.05281        2.52265
H          1.96487       -6.02459        2.95610
H          0.97828       -4.57447        3.14405
H         -1.07135       -7.40529        1.41979
H         -2.00985       -5.89322        1.48012
H         -2.51865       -7.23351        0.42357
C          5.85003        0.54618       -0.82019
C          4.85992        2.96223        1.65745
C          3.09301        2.20639        3.22456
C          4.89409        0.60422        2.55274
C          3.74750        0.00371       -3.60229
C          1.82819        1.59824       -3.82400
C          4.04866        2.46788       -3.15113
H          5.41199        3.35097        2.51274
H          5.58439        2.69717        0.89112
H          4.23481        3.76338        1.26428
H          3.68364        2.66887        4.01499
H          2.36081        2.93767        2.88390
H          2.55999        1.36909        3.67278
H          5.57156        0.26867        1.77134
H          5.49427        0.91773        3.40653
H          4.29111       -0.25051        2.85870
H          3.06723       -0.84518       -3.53735
H          4.00294        0.15239       -4.65112
H          4.65734       -0.26029       -3.06833
H          1.16731        0.73766       -3.91443
H          1.27039        2.40954       -3.35687
H          2.08685        1.90949       -4.83568
H          3.61198        3.35540       -2.69419
H          4.24785        2.68900       -4.19939
H          5.00389        2.28005       -2.66750
H          5.30821       -0.37866       -0.61796
H          6.28754        0.50076       -1.81723
H          6.65884        0.65938       -0.09841
