58
-89.86803617
P          1.65748       -0.08840        0.92767
C          1.61152        1.69346        0.68139
C          1.62915        2.16317       -0.61282
C          1.56266        3.52264       -0.85596
C          1.48480        4.40483        0.20305
C          1.48481        3.93144        1.50034
C          1.55309        2.57096        1.74004
H          1.57510        2.19560        2.74978
H          1.69614        1.45793       -1.42651
C          3.29698       -0.74075        0.60345
C          3.50269       -2.10056        0.64618
C          4.76103       -2.61323        0.38474
C          5.80303       -1.75896        0.08192
C          5.59075       -0.39507        0.03832
C          4.33154        0.11430        0.29934
H          4.14875        1.17601        0.26248
H          2.67615       -2.75615        0.87118
C          1.16367       -0.59004        2.62500
C         -0.19454       -0.07486        3.07555
C         -1.37989       -0.79883        2.45609
P         -1.72118       -0.36137        0.70447
C         -3.16279       -1.28349        0.16706
C         -4.30832       -0.61754       -0.20431
C         -5.41244       -1.33390       -0.62981
C         -5.35882       -2.71294       -0.68163
C         -4.20587       -3.37639       -0.31025
C         -3.10320       -2.65715        0.11566
H         -2.19159       -3.16021        0.39784
H         -4.33182        0.45954       -0.16537
C         -1.94987        1.40559        0.45312
C         -2.17161        2.26775        1.50277
C         -2.30697        3.62273        1.26033
C         -2.22860        4.10446       -0.03158
C         -2.02484        3.23443       -1.08387
C         -1.88843        1.88110       -0.83731
H         -1.73515        1.18279       -1.64512
H         -2.25250        1.88245        2.50571
Pd         0.10763       -0.71483       -0.67438
Cl         1.85204       -1.26304       -1.97857
Cl        -1.40464       -1.23241       -2.25791
H         -1.23876       -1.88010        2.50251
H         -2.30462       -0.58015        2.99599
H         -0.26091       -0.15313        4.17202
H         -0.26836        0.99744        2.86017
H          1.19535       -1.68015        2.66727
H          1.96146       -0.22812        3.27845
H          1.56723        3.89017       -1.86888
H          1.43117        4.62134        2.32645
H          4.92511       -3.67792        0.41235
H          6.40260        0.27148       -0.20225
H         -6.31047       -0.81588       -0.92383
H         -4.16205       -4.45211       -0.35656
H         -2.47304        4.30203        2.08026
H         -1.96806        3.60732       -2.09323
H          1.42733        5.46488        0.01694
H          6.78283       -2.15777       -0.12459
H         -6.21718       -3.27240       -1.01619
H         -2.33011        5.16096       -0.21912
