111
-148.55323554
P         -2.46874        2.16611        0.92447
P          0.09953        0.35354        0.53195
C         -1.42241        1.76310        2.35046
C         -0.28309        1.01068        2.16511
C         -3.13257        3.89082        1.04065
C         -2.42866        4.82579        0.08157
C         -1.76166        2.19583        3.61656
H         -2.66432        2.76643        3.76114
C         -0.94972        1.88094        4.69265
H         -1.21371        2.21885        5.68147
C          0.19642        1.13308        4.50185
H          0.82728        0.88660        5.33996
C          0.52891        0.69260        3.23331
H          1.41156        0.09460        3.06752
Pd        -1.28442        1.47776       -0.94177
Cl        -2.91026        2.48385       -2.11627
Cl         0.06716        0.82336       -2.61137
C         -4.63616        3.69677        0.77068
C         -4.05065        1.20686        0.87945
H         -2.82104        5.84271        0.15500
H         -1.35445        4.86076        0.27829
H         -2.56113        4.49672       -0.94974
H         -4.82237        3.84055       -0.30256
H         -5.22209        4.47698        1.27998
H         -4.16089        0.85149       -0.15389
C         -5.11326        2.27697        1.19185
C         -4.01589        0.04316        1.84644
H         -2.97218        4.21485        2.07678
H         -5.32064        2.26522        2.27073
H         -6.06718        2.02276        0.70526
H         -4.95672       -0.51205        1.83833
H         -3.21068       -0.65169        1.59772
H         -3.84433        0.39159        2.86658
C         -1.23388       -3.98309        0.12823
C         -1.24010       -3.37082        1.40837
C         -0.81940       -2.05514        1.50904
C         -0.48172       -1.33578        0.39303
C         -0.58815       -1.88864       -0.85531
C         -0.99331       -3.19953       -1.02889
O         -1.42764       -5.38505        0.00979
C         -1.65730       -4.12292        2.68185
H         -0.73791       -1.57536        2.46809
H         -0.33641       -1.27131       -1.69987
C         -1.12520       -3.75227       -2.45607
C          4.45712        0.71845       -0.73092
C          3.81805       -0.54721       -0.75307
C          2.49333       -0.61680       -0.35875
C          1.83070        0.48905        0.10524
C          2.47195        1.69386        0.22315
C          3.80015        1.83285       -0.14760
O          5.73606        0.87759       -1.32771
C          4.51473       -1.82656       -1.24212
H          1.95052       -1.54264       -0.42968
H          1.91134        2.53306        0.59803
C          4.49165        3.19105        0.04912
C         -2.74071       -5.17293        2.37550
C         -0.42390       -4.79927        3.29896
C         -2.25747       -3.14887        3.72135
C         -2.20690       -4.84459       -2.53279
C         -1.54652       -2.63215       -3.43538
C          0.23151       -4.31404       -2.90810
C         -0.22417       -6.14083        0.06616
H         -3.08187       -5.66172        3.28773
H         -3.60193       -4.70723        1.89752
H         -2.36684       -5.94594        1.70871
H          0.02007       -5.51344        2.60960
H          0.33748       -4.05985        3.54633
H         -0.68676       -5.33216        4.21242
H         -3.07073       -2.56957        3.28562
H         -2.65763       -3.69443        4.57565
H         -1.51030       -2.45665        4.10652
H         -2.34246       -5.19061       -3.55718
H         -1.94382       -5.70761       -1.92655
H         -3.16246       -4.46357       -2.17404
H         -1.76908       -3.04231       -4.42005
H         -2.43843       -2.11893       -3.07694
H         -0.75774       -1.89345       -3.56880
H          0.99372       -3.53538       -2.89476
H          0.56556       -5.11451       -2.25214
H          0.17224       -4.71054       -3.92132
H          0.63226       -5.48265        0.21848
H         -0.28175       -6.85798        0.88488
H         -0.09512       -6.69497       -0.86336
C          5.69097        1.23094       -2.70460
C          4.29381       -1.97579       -2.75515
C          6.02029       -1.79549       -0.92352
C          3.92982       -3.07180       -0.53572
C          3.90172        3.93063        1.27157
C          5.99755        3.01580        0.31731
C          4.27280        4.05723       -1.20066
H          4.71376       -1.13392       -3.30009
H          4.75997       -2.88645       -3.13039
H          3.22970       -2.02051       -2.98588
H          6.50208       -2.72821       -1.21575
H          6.52120       -0.98757       -1.45084
H          6.18349       -1.64903        0.14366
H          3.95018       -2.94883        0.54681
H          2.90198       -3.26444       -0.83983
H          4.50694       -3.96278       -0.78208
H          4.47330        4.83219        1.49096
H          2.87215        4.24001        1.09825
H          3.92521        3.29572        2.15692
H          6.50437        2.57296       -0.53631
H          6.47349        3.97464        0.52126
H          6.16112        2.36620        1.17651
H          3.20916        4.21200       -1.38038
H          4.69133        3.58492       -2.08606
H          4.74204        5.03403       -1.08628
H          6.19738        2.18421       -2.85483
H          6.20898        0.47441       -3.29378
H          4.65685        1.31067       -3.04245
