111
-148.54845976
P         -2.15367        2.21575        1.33732
P          0.10103        0.13972        0.57651
C         -1.16842        1.44538        2.64761
C         -0.16951        0.56102        2.30591
C         -2.25344        4.04582        1.60380
C         -1.49348        4.80660        0.53989
C         -1.38784        1.75531        3.97463
H         -2.15737        2.46268        4.23653
C         -0.61330        1.16328        4.95738
H         -0.78558        1.40287        5.99399
C          0.38101        0.26821        4.61155
H          0.98304       -0.19363        5.37669
C          0.60427       -0.03377        3.27996
H          1.37496       -0.73120        2.99118
Pd        -1.41392        1.36518       -0.68365
Cl        -2.58718        2.90999       -1.79817
Cl        -0.62814        0.26531       -2.47751
C         -3.77180        4.33186        1.63550
C         -3.95510        1.79337        1.33589
H         -1.93472        4.64143       -0.44326
H         -1.50836        5.88268        0.72837
H         -0.45039        4.48550        0.49197
H         -3.97740        5.26329        1.08886
H         -4.09498        4.52350        2.66909
H         -4.11622        1.08714        0.50977
C         -4.60706        3.16029        1.04395
C         -4.38412        1.18263        2.65216
H         -1.80182        4.22946        2.58837
H         -5.63264        3.17341        1.44168
H         -4.70604        3.29781       -0.04319
H         -3.78568        0.30242        2.89532
H         -4.26199        1.89839        3.46671
H         -5.43509        0.88440        2.63267
C         -1.27443       -4.13263       -0.20606
C         -1.95675       -3.32423        0.73891
C         -1.48685       -2.04086        0.96747
C         -0.42420       -1.54238        0.25926
C          0.16786       -2.28094       -0.73075
C         -0.25526       -3.56789       -1.01434
O         -1.59872       -5.51044       -0.32700
C         -3.17805       -3.83047        1.52234
H         -1.94433       -1.40830        1.70858
H          0.96187       -1.82689       -1.29699
C          0.39745       -4.32636       -2.18069
C          4.31188        0.98357       -0.93737
C          4.03373       -0.25206       -0.29893
C          2.74550       -0.48125        0.15507
C          1.77443        0.47914        0.04097
C          2.06519        1.71317       -0.47904
C          3.33514        2.01199       -0.94405
O          5.55569        1.17829       -1.59528
C          5.09145       -1.35525       -0.13762
H          2.47650       -1.42718        0.59211
H          1.27500        2.44226       -0.53218
C          3.61687        3.42367       -1.48220
C         -4.09097       -2.65426        1.93562
C         -4.02905       -4.78019        0.65995
C         -2.70601       -4.54843        2.79572
C         -0.60768       -5.28085       -2.85026
C          0.87651       -3.34045       -3.27148
C          1.61271       -5.11041       -1.66282
C         -0.82323       -6.36812        0.50066
H         -4.33986       -2.03317        1.07540
H         -5.02326       -3.01957        2.36573
H         -3.61592       -2.02840        2.68924
H         -4.92791       -5.09250        1.19092
H         -4.33357       -4.28959       -0.26395
H         -3.47544       -5.67751        0.39436
H         -2.07934       -5.40397        2.55745
H         -2.12277       -3.87502        3.42345
H         -3.55399       -4.90524        3.37975
H         -0.93709       -6.05651       -2.16354
H         -1.48934       -4.73503       -3.18460
H         -0.16453       -5.77301       -3.71560
H          1.21123       -3.87722       -4.15877
H          0.07016       -2.67066       -3.56927
H          1.71505       -2.73580       -2.92929
H          2.10993       -5.64099       -2.47443
H          2.33747       -4.43852       -1.20412
H          1.32118       -5.84138       -0.91284
H         -0.12562       -5.78668        1.10480
H         -1.48338       -6.93876        1.15362
H         -0.26937       -7.07287       -0.11916
C          5.55205        0.80783       -2.96841
C          6.49114       -0.75182        0.07796
C          4.78416       -2.23406        1.09626
C          5.08564       -2.25124       -1.38573
C          3.29340        3.46766       -2.98349
C          2.73532        4.46918       -0.76097
C          5.08176        3.82936       -1.23888
H          6.81465       -0.18011       -0.78829
H          6.49237       -0.08364        0.93849
H          7.23154       -1.53200        0.25293
H          3.88284       -2.82851        0.95323
H          5.59936       -2.93188        1.28643
H          4.65472       -1.62026        1.98731
H          4.10304       -2.69772       -1.53407
H          5.32814       -1.68413       -2.28076
H          5.81252       -3.05759       -1.29140
H          2.24887        3.21113       -3.15921
H          3.47055        4.46204       -3.39235
H          3.90414        2.76151       -3.54038
H          3.02718        5.48094       -1.04159
H          1.68399        4.35758       -1.02169
H          2.83366        4.38027        0.32064
H          5.26434        4.85290       -1.56520
H          5.76846        3.18440       -1.78106
H          5.32718        3.76215       -0.17952
H          6.31567        0.05028       -3.14404
H          4.57544        0.41477       -3.25397
H          5.78909        1.67595       -3.58308
