111
-148.55125834
P         -2.56262        1.99043        0.77401
P          0.18264        0.44157        0.45836
C         -1.46924        1.78253        2.20873
C         -0.25880        1.14166        2.05850
C         -3.53376        3.56111        0.91793
C         -3.40184        4.41092       -0.32642
C         -1.85007        2.24615        3.45220
H         -2.80522        2.73057        3.57127
C         -1.01191        2.07230        4.54003
H         -1.30942        2.43448        5.51058
C          0.20215        1.43153        4.38478
H          0.85290        1.29242        5.23235
C          0.57757        0.95960        3.14001
H          1.51365        0.44053        3.00471
Pd        -1.27282        1.41154       -1.05805
Cl        -2.97952        2.04651       -2.36785
Cl         0.04842        0.80202       -2.76922
C         -4.96782        3.05597        1.18214
C         -3.93651        0.75093        0.72651
H         -3.94465        5.35404       -0.22830
H         -2.35596        4.64187       -0.54170
H         -3.80878        3.88809       -1.19288
H         -5.69119        3.76771        0.75809
H         -5.16673        3.04174        2.26386
H         -3.78609        0.14404       -0.17715
C         -5.19584        1.63248        0.59944
C         -3.91402       -0.12560        1.95958
H         -3.13600        4.10200        1.78700
H         -6.04180        1.13920        1.09995
H         -5.48521        1.71665       -0.45849
H         -4.03611        0.47594        2.86226
H         -4.71761       -0.86570        1.94180
H         -2.96512       -0.65931        2.04562
C         -1.25203       -3.88178        0.24626
C         -1.03108       -3.27676        1.51011
C         -0.56106       -1.97436        1.54219
C         -0.37092       -1.26273        0.38684
C         -0.67367       -1.81288       -0.83040
C         -1.15669       -3.10449       -0.93586
O         -1.54211       -5.26994        0.16515
C         -1.27395       -4.02256        2.83203
H         -0.33836       -1.49265        2.47765
H         -0.53029       -1.20623       -1.70717
C         -1.56511       -3.63412       -2.31955
C          4.59596        0.85758       -0.59708
C          3.97245        1.84313        0.21005
C          2.63525        1.67894        0.53364
C          1.91530        0.61827        0.04788
C          2.48848       -0.28120       -0.81206
C          3.81467       -0.16499       -1.19280
O          6.00391        0.87905       -0.78385
C          4.73571        3.06005        0.75624
H          2.13463        2.37870        1.18002
H          1.87716       -1.08054       -1.19255
C          4.37688       -1.14204       -2.23748
C         -0.00451       -4.79531        3.22044
C         -1.61263       -3.03397        3.97109
C         -2.46652       -4.98815        2.70726
C         -0.34879       -4.28242       -2.99741
C         -2.71650       -4.64949       -2.20619
C         -2.07097       -2.47938       -3.21578
C         -0.39518       -6.09519        0.00509
H          0.83976       -4.11588        3.33534
H         -0.14272       -5.32499        4.16269
H          0.26014       -5.52637        2.46062
H         -1.89388       -3.57081        4.87681
H         -0.76163       -2.40384        4.22542
H         -2.44701       -2.39110        3.69338
H         -2.68202       -5.47028        3.66045
H         -3.36059       -4.45396        2.38726
H         -2.26766       -5.77163        1.98006
H          0.45390       -3.55646       -3.12224
H          0.04074       -5.10717       -2.40557
H         -0.61029       -4.66807       -3.98243
H         -3.04875       -4.97700       -3.19096
H         -2.41362       -5.53334       -1.65057
H         -3.56816       -4.20688       -1.69062
H         -2.48700       -2.86509       -4.14606
H         -2.85083       -1.90936       -2.71143
H         -1.26801       -1.79515       -3.48573
H         -0.35596       -6.82461        0.81400
H         -0.46188       -6.63766       -0.93772
H          0.51310       -5.49131        0.01445
C          6.72737        0.09909        0.15973
C          5.80751        3.53287       -0.24281
C          3.77819        4.25092        0.98727
C          5.38768        2.69074        2.09725
C          3.26724       -1.57836       -3.22207
C          5.48419       -0.47972       -3.07712
C          4.92191       -2.39071       -1.52825
H          6.30511        4.43450        0.11345
H          6.57123        2.77384       -0.39364
H          5.35887        3.75264       -1.21100
H          4.33539        5.14927        1.25210
H          3.20378        4.46702        0.08683
H          3.08194        4.05575        1.80165
H          6.08961        1.86870        1.98089
H          5.92931        3.53904        2.51498
H          4.63297        2.38227        2.82040
H          3.68451       -2.15856       -4.04470
H          2.52148       -2.20472       -2.73558
H          2.76184       -0.71072       -3.64555
H          5.83666       -1.15037       -3.86034
H          5.11399        0.42940       -3.54983
H          6.34077       -0.21099       -2.46419
H          5.71997       -2.13454       -0.83556
H          5.31761       -3.10683       -2.24801
H          4.13469       -2.88441       -0.95880
H          6.04589       -0.35930        0.87745
H          7.28658       -0.67891       -0.35956
H          7.43894        0.73369        0.68779
