72
-98.09653665
Fe         0.01615        2.78270        0.12462
P          1.85583       -0.12876        0.12677
P         -1.85064       -0.07624       -0.14583
C          1.40367        1.50929        0.81614
C          0.40167        1.76423        1.83680
C          0.37624        3.19355        2.09674
C          1.38267        3.82260        1.26055
C          2.01867        2.78138        0.47092
C         -1.39337        1.61235       -0.69086
C         -1.99140        2.85427       -0.22753
C         -1.33821        3.95457       -0.91609
C         -0.34764        3.39394       -1.81659
C         -0.38946        1.94782       -1.68613
C          2.73788        0.09472       -1.49119
C          4.22750       -0.12873       -1.15152
C          3.27677       -0.78091        1.12056
C          4.48305       -0.18170        0.37885
C         -2.73648       -0.00546        1.48254
C         -4.22450       -0.20263        1.11932
C         -3.26114       -0.65314       -1.19727
C         -4.47461       -0.12933       -0.41133
H         -0.21093        1.01215        2.33448
H         -0.26537        3.70123        2.82079
H          1.62757        4.88692        1.23819
H          2.83472        2.92149       -0.24129
H         -2.80137        2.93892        0.50013
H          0.21538        1.23649       -2.24928
Cl         1.51898       -3.10657        0.38918
Cl        -1.56923       -3.10407       -0.51781
Pd        -0.01766       -1.52858       -0.09334
H          2.55811        1.13009       -1.80329
C          2.20330       -0.87639       -2.53749
H          3.27943       -1.87138        1.01581
C          3.18659       -0.39898        2.59262
H          4.85077        0.64412       -1.62520
H          4.55150       -1.07778       -1.59943
H          5.39734       -0.75035        0.60943
H          4.66184        0.83356        0.76047
H         -1.56731        5.01538       -0.79299
H          0.30031        3.95824       -2.49102
H          2.40571       -1.90246       -2.20152
H          4.14202       -0.62873        3.08454
H         -2.56072        0.99702        1.88986
C         -2.20129       -1.06907        2.43481
H         -3.25263       -1.74861       -1.18612
C         -3.17145       -0.14617       -2.63119
H         -4.85125        0.52718        1.65292
H         -4.54826       -1.18603        1.48598
H         -5.38315       -0.68442       -0.69226
H         -4.66137        0.91289       -0.70690
H         -2.40770       -2.05986        2.00771
H         -3.06478        0.94638       -2.61524
C          2.78790       -0.64321       -3.92251
H          2.38942       -1.34532       -4.65840
H          2.56696        0.36528       -4.27741
H          3.87377       -0.75214       -3.92031
C          2.04668       -1.10099        3.31230
H          1.09043       -0.87840        2.83968
H          2.16970       -2.18523        3.28300
H          1.97440       -0.80345        4.36078
C         -2.78138       -0.96144        3.83703
H         -3.86762       -1.06630        3.82802
H         -2.38329       -1.72904        4.50455
H         -2.55607        0.00975        4.28182
C         -2.02893       -0.78004       -3.40756
H         -1.95878       -0.39492       -4.42728
H         -1.07342       -0.59326       -2.91844
H         -2.14711       -1.86344       -3.46986
H          1.10952       -0.80356       -2.57724
H          3.07580        0.69049        2.67035
H         -1.10712       -1.00417        2.47728
H         -4.12579       -0.33661       -3.14168
