105
-153.05842042
Cl         0.09250        2.20640        2.98612
Pd        -0.36750        1.47335        0.90434
P         -0.97824        0.51413       -1.17504
N         -0.37333       -0.94271       -1.96753
C          0.37684       -2.04893       -1.56719
C          0.32325       -2.59904       -0.26463
C          1.11900       -3.71992        0.04845
C          0.97829       -4.37645        1.40053
C          2.21360       -5.19240        1.80664
C          2.59515       -6.17108        0.69163
C          2.89608       -5.42625       -0.62019
C          1.97109       -4.26878       -0.91375
C          1.98281       -3.73019       -2.19407
C          1.19296       -2.65839       -2.51891
H          1.22487       -2.24438       -3.51176
H          2.63411       -4.16138       -2.93549
H          3.92419       -5.04510       -0.59739
H          3.45146       -6.78996        0.99482
H          3.05232       -4.51022        1.99443
H          0.75479       -3.62363        2.16452
C         -0.66434       -2.11525        0.72864
C         -0.20568       -1.42657        1.88229
C         -1.13105       -1.10256        2.87829
C         -2.44170       -1.49116        2.77270
C         -2.89947       -2.19934        1.66659
C         -4.33532       -2.66542        1.66107
C         -4.65859       -3.69918        0.57035
C         -3.99395       -3.32646       -0.75803
C         -2.46813       -3.23746       -0.60357
C         -2.01669       -2.48234        0.62183
H         -2.03809       -4.24543       -0.57026
H         -4.38140       -2.35842       -1.09726
H         -5.74534       -3.80546        0.44360
H         -4.98863       -1.79396        1.54876
H         -3.13554       -1.25310        3.56105
H         -0.78851       -0.54889        3.73464
N          1.15202       -1.05841        2.03262
P          1.67708        0.32414        1.08457
C          2.56908       -0.08719       -0.40631
C          2.34877        0.67368       -1.52766
C          3.05379        0.40536       -2.68663
C          3.98422       -0.62421       -2.72467
C          4.21509       -1.35940       -1.56962
C          3.50875       -1.09040       -0.41125
H          3.69060       -1.65786        0.48712
H          4.94712       -2.14871       -1.58467
C          4.74729       -0.91147       -3.97021
H          2.88524        0.99642       -3.57029
H          1.62821        1.47418       -1.49070
C          2.68544        1.45245        2.04139
C          3.03881        1.10541        3.32218
C          3.80641        1.97080        4.08095
C          4.22659        3.18546        3.55494
C          3.84947        3.52027        2.26079
C          3.08200        2.65345        1.50376
H          2.78668        2.90946        0.49850
H          4.15678        4.46715        1.85083
C          5.02582        4.13267        4.38042
H          4.07714        1.71029        5.08982
H          2.69650        0.16543        3.72466
H          1.85915       -1.73951        1.77904
H         -0.64433       -0.88922       -2.94186
C         -0.67385        1.88111       -2.31754
C         -1.13054        3.14444       -2.02809
C         -0.90255        4.18768       -2.90448
C         -0.20523        3.97756       -4.08533
C          0.23963        2.69533       -4.37352
C          0.00461        1.65522       -3.49326
H          0.36873        0.66756       -3.71760
H          0.77191        2.51632       -5.29218
C          0.02454        5.09539       -5.04201
H         -1.26510        5.17506       -2.67452
H         -1.66256        3.31306       -1.10786
C         -2.76717        0.34964       -1.11820
C         -3.41083        0.21387       -2.32615
C         -4.79054        0.11222       -2.36826
C         -5.53741        0.16541       -1.19977
C         -4.87071        0.30191        0.00921
C         -3.49135        0.38152        0.04903
H         -2.97597        0.47611        0.99088
H         -5.44088        0.35371        0.92092
C         -7.01980        0.03206       -1.23477
H         -5.29514       -0.00382       -3.31214
H         -2.83095        0.19485       -3.23600
Cl        -2.20175        2.78116        0.86308
H          2.86371       -6.12471       -1.46610
H          2.04333       -5.72153        2.75493
H          1.76838       -6.87432        0.53019
H          0.09780       -5.02963        1.37543
H         -4.26633       -4.04358       -1.54521
H         -2.03211       -2.76092       -1.48999
H         -4.57208       -3.07681        2.65075
H         -4.30176       -4.68719        0.88760
H          4.17083       -0.64101       -4.85606
H          5.68149       -0.34868       -3.99106
H          4.99059       -1.97228       -4.04581
H          5.68228        4.74143        3.75711
H          4.37271        4.80490        4.93846
H          5.65160        3.59916        5.09723
H          0.94688        4.94801       -5.60562
H         -0.79765        5.17007       -5.75499
H          0.10520        6.04989       -4.51999
H         -7.42391        0.36657       -2.19119
H         -7.31814       -1.00697       -1.08776
H         -7.48627        0.63052       -0.45101
