105
-153.05869358
Cl         2.93368        2.25411        0.04040
Pd         0.80135        1.79573       -0.50656
P         -1.34763        1.24620       -1.24572
N         -1.41320       -0.38251       -0.69545
C         -0.43443       -1.25565       -1.15622
C         -0.08319       -2.33944       -0.31294
C          1.02038       -3.14493       -0.64898
C          1.42354       -4.27576        0.26429
C          2.19471       -5.38459       -0.46420
C          3.37519       -4.78844       -1.23750
C          2.90618       -3.74065       -2.26279
C          1.73948       -2.88830       -1.82038
C          1.35825       -1.83126       -2.64163
C          0.29711       -1.02611       -2.32060
H          0.02973       -0.19980       -2.95273
H          1.91774       -1.64534       -3.54276
H          3.73879       -3.07770       -2.53054
H          4.06718       -4.31926       -0.52821
H          2.53413       -6.15736        0.24001
H          2.04451       -3.86746        1.06774
C         -0.99092       -2.68556        0.81465
C         -1.14734       -1.85757        1.96253
C         -1.98677       -2.29774        2.98585
C         -2.68086       -3.47508        2.88803
C         -2.60993       -4.25641        1.74316
C         -3.42586       -5.52773        1.69844
C         -3.55750       -6.15879        0.30186
C         -2.23816       -6.06591       -0.47033
C         -1.81230       -4.59887       -0.61985
C         -1.78533       -3.84777        0.69196
H         -0.83876       -4.53794       -1.11755
H         -2.31892       -6.55614       -1.45087
H         -4.34270       -5.63841       -0.26100
H         -4.42081       -5.32011        2.11254
H         -3.31444       -3.79425        3.69840
H         -2.09345       -1.68559        3.86479
N         -0.58189       -0.59467        2.12773
P          0.74610        0.26372        1.31974
C          2.18102       -0.81200        1.31334
C          2.36205       -1.62265        2.40891
C          3.49111       -2.41763        2.50038
C          4.44010       -2.41253        1.48787
C          4.23823       -1.58874        0.38832
C          3.11280       -0.79043        0.30324
H          2.96382       -0.14244       -0.54463
H          4.97187       -1.56965       -0.39927
C          5.65853       -3.26164        1.59788
H          3.64060       -3.04933        3.35926
H          1.61876       -1.62544        3.19078
C          1.13668        1.59609        2.47671
C          2.31811        1.59375        3.18018
C          2.60817        2.62929        4.04892
C          1.71318        3.67536        4.22527
C          0.53024        3.66734        3.49986
C          0.24451        2.62993        2.63219
H         -0.66933        2.63358        2.06476
H         -0.16405        4.48241        3.61339
C          2.03726        4.80788        5.13611
H          3.53800        2.63431        4.59165
H          3.02047        0.78957        3.03839
H         -0.68315       -0.16808        3.04099
H         -1.36139       -0.33530        0.31946
C         -1.88560        1.26454       -2.95557
C         -1.32653        2.11578       -3.87748
C         -1.76418        2.09646       -5.18765
C         -2.77147        1.22598       -5.58212
C         -3.31783        0.36554       -4.63895
C         -2.87671        0.38795       -3.32743
H         -3.29013       -0.28231       -2.58995
H         -4.08820       -0.32447       -4.93800
C         -3.22604        1.18470       -6.99964
H         -1.32343        2.75757       -5.91418
H         -0.54471        2.78691       -3.56540
C         -2.40108        2.28318       -0.23654
C         -2.63377        1.93418        1.07306
C         -3.40783        2.75205        1.87419
C         -3.95561        3.92263        1.36732
C         -3.69787        4.26374        0.04605
C         -2.92210        3.44474       -0.75433
H         -2.71067        3.71033       -1.77793
H         -4.10303        5.17895       -0.35061
C         -4.76122        4.82105        2.23979
H         -3.58358        2.49018        2.90372
H         -2.17785        1.04701        1.48114
Cl         0.79191        3.48997       -1.98316
H          2.62528       -4.24415       -3.19566
H          1.52190       -5.89586       -1.16403
H          3.95625       -5.58148       -1.72891
H          0.54237       -4.68884        0.76840
H         -1.45920       -6.61600        0.07248
H         -2.50738       -4.08221       -1.29264
H         -2.97073       -6.25121        2.38551
H         -3.89208       -7.20329        0.37467
H          5.39586       -4.28877        1.85548
H          6.21346       -3.28574        0.65901
H          6.32692       -2.88087        2.37129
H          1.13204        5.23826        5.56672
H          2.67280        4.48123        5.96038
H          2.56289        5.59800        4.59828
H         -3.12354        2.16139       -7.47464
H         -2.63796        0.46765       -7.57405
H         -4.27473        0.89219       -7.06851
H         -5.30455        4.25216        2.99559
H         -4.11965        5.53769        2.75438
H         -5.49391        5.38213        1.65810
