111
-148.54811575
P         -2.19682        2.43919        0.21265
P         -0.13609        0.03536        0.50057
C         -1.66231        1.90087        1.85623
C         -0.76161        0.86596        1.97594
C         -2.07870        4.28272        0.09420
C         -1.24561        4.70220       -1.09716
C         -2.10848        2.56089        2.98331
H         -2.79898        3.38212        2.88081
C         -1.65276        2.17723        4.23274
H         -2.00271        2.69034        5.11356
C         -0.73940        1.14748        4.35003
H         -0.37409        0.85638        5.32112
C         -0.28573        0.49619        3.21714
H          0.45249       -0.28732        3.29063
Pd        -1.02840        1.16833       -1.32017
Cl        -2.18773        2.20839       -2.93692
Cl         0.23354       -0.05853       -2.71750
C         -3.55510        4.72353        0.01522
C         -4.00088        2.20104       -0.12475
H         -0.24372        4.26887       -1.05515
H         -1.70887        4.36726       -2.02638
H         -1.14329        5.78853       -1.15351
H         -3.63234        5.63924       -0.58896
H         -3.91821        4.99880        1.01630
H         -4.06742        1.48301       -0.95387
C         -4.46120        3.60424       -0.57038
C         -4.72693        1.66774        1.09155
H         -1.61027        4.62669        1.02657
H         -5.50915        3.75866       -0.27475
H         -4.45045        3.66749       -1.66852
H         -4.67213        2.37897        1.91709
H         -5.78431        1.49054        0.88102
H         -4.28797        0.72794        1.43525
C         -1.25165       -4.39622        0.40038
C         -0.68280       -3.78002       -0.74240
C         -0.37952       -2.43134       -0.67473
C         -0.53763       -1.71722        0.48406
C         -0.99447       -2.33694        1.61894
C         -1.32372       -3.68214        1.62305
O         -1.78836       -5.70831        0.31196
C         -0.42816       -4.53475       -2.05681
H         -0.04526       -1.90283       -1.54895
H         -1.11631       -1.74705        2.50861
C         -1.78374       -4.33703        2.93540
C          4.26227        1.12015        0.02892
C          3.80213       -0.12561       -0.47644
C          2.47394       -0.46465       -0.27732
C          1.60195        0.41421        0.30913
C          2.00969        1.67385        0.66805
C          3.32679        2.07302        0.51168
O          5.65372        1.37845        0.12619
C          4.67369       -1.09729       -1.29032
H          2.10354       -1.42347       -0.59522
H          1.27908        2.34949        1.08102
C          3.68777        3.52606        0.86160
C         -0.13092       -6.02342       -1.80029
C         -1.65404       -4.38724       -2.97062
C          0.80516       -3.95422       -2.78486
C         -3.30995       -4.21407        3.05881
C         -1.36467       -5.81742        2.99171
C         -1.13397       -3.63894        4.15209
C         -3.15611       -5.74806       -0.07631
H          0.70962       -6.13405       -1.11598
H         -0.98613       -6.53049       -1.36135
H          0.11663       -6.53903       -2.72785
H         -1.84555       -3.33722       -3.19065
H         -1.50176       -4.90773       -3.91572
H         -2.54658       -4.79484       -2.50145
H          1.67126       -3.94393       -2.12399
H          1.05806       -4.55560       -3.65769
H          0.62735       -2.93958       -3.13743
H         -3.81388       -4.71848        2.23796
H         -3.66288       -4.65435        3.99105
H         -3.61472       -3.16788        3.04268
H         -1.84932       -6.39690        2.20985
H         -0.28747       -5.91644        2.86202
H         -1.63401       -6.26494        3.94809
H         -0.05092       -3.59390        4.04047
H         -1.50859       -2.62483        4.28340
H         -1.35309       -4.18132        5.07157
H         -3.54968       -4.73685       -0.18692
H         -3.25502       -6.28064       -1.02193
H         -3.73354       -6.28292        0.67767
C          6.21434        0.89960        1.33705
C          3.93857       -1.45037       -2.60148
C          6.03007       -0.48895       -1.68641
C          4.90918       -2.37932       -0.47476
C          3.71658        3.69027        2.38984
C          5.04541        3.94575        0.27196
C          2.62402        4.47901        0.27183
H          4.54566       -2.10530       -3.22581
H          2.99694       -1.96026       -2.41055
H          3.71782       -0.54869       -3.17196
H          6.65078       -0.30656       -0.81247
H          6.58138       -1.15583       -2.34891
H          5.88932        0.46143       -2.20010
H          5.42874       -2.15936        0.45654
H          3.96563       -2.86272       -0.22358
H          5.51182       -3.09285       -1.03610
H          2.75308        3.42951        2.82701
H          4.47051        3.04738        2.84001
H          3.94393        4.71937        2.66680
H          5.24235        5.00242        0.45133
H          5.85984        3.37885        0.71718
H          5.06687        3.77296       -0.80348
H          2.90721        5.52004        0.42518
H          1.65070        4.33772        0.73873
H          2.51314        4.31524       -0.79973
H          5.76963        1.41888        2.18443
H          6.02468       -0.16821        1.43994
H          7.28994        1.07732        1.33052
