171
-217.83838630
P         -1.43874        0.29419       -0.32725
P          1.66945       -0.77798        0.31415
C         -0.48192        0.93191       -1.71531
C          0.88739       -1.85216       -0.91112
C          0.30706        0.04286       -2.43439
C          1.08865        0.52765       -3.50075
C          1.00340        1.86792       -3.84030
C          0.19708        2.73194       -3.12919
C         -0.53832        2.26053       -2.05951
C          0.83019       -3.17932       -0.55524
C          0.19161       -4.09340       -1.37047
C         -0.40761       -3.66287       -2.53441
C         -0.37616       -2.32868       -2.90349
C          0.29380       -1.40065       -2.08416
Cl         0.82588       -0.70353        3.49688
Cl        -2.18766       -1.12658        2.66439
C         -1.06880       -1.90995       -4.15297
C          1.98301       -0.37969       -4.27110
H          0.14513        3.77230       -3.40549
H         -1.15199        2.93461       -1.48727
H          1.28042       -3.49653        0.37399
H          0.15426       -5.13380       -1.09171
H          1.57501        2.23285       -4.67655
H         -0.92087       -4.36681       -3.16777
C         -4.61477       -2.48831       -1.97042
C         -4.32095       -1.31473       -2.65421
C         -3.33486       -0.48775       -2.12855
C         -2.69004       -0.82178       -0.96276
C         -2.99794       -1.98199       -0.30043
C         -3.96041       -2.84825       -0.79809
H         -5.38736       -3.12560       -2.35703
H         -3.05285        0.42037       -2.63248
H         -2.50354       -2.20063        0.62894
C         -3.76714        3.69814        1.61516
C         -2.92681        2.94256        2.42202
C         -2.20164        1.91940        1.82698
C         -2.32348        1.65054        0.48389
C         -3.18050        2.39618       -0.28817
C         -3.90702        3.44664        0.25610
H         -4.33616        4.48882        2.06669
H         -1.54978        1.31521        2.42802
H         -3.28937        2.15707       -1.33195
C          5.44865       -2.89784        1.65687
C          5.09937       -2.90669        0.31091
C          3.93061       -2.25496       -0.06109
C          3.14673       -1.63110        0.87819
C          3.50602       -1.63620        2.20079
C          4.66707       -2.26919        2.61987
H          6.34828       -3.39588        1.96285
H          3.62085       -2.24212       -1.09316
H          2.85920       -1.15990        2.91473
C          3.06950        3.36593       -0.86409
C          1.97603        3.26826       -0.01293
C          1.54051        1.99684        0.34216
C          2.16735        0.88180       -0.16498
C          3.24836        1.00005       -1.00368
C          3.72793        2.25210       -1.36683
H          3.43139        4.34168       -1.13102
H          0.70641        1.87004        1.00836
H          3.72388        0.10341       -1.36119
Pd        -0.30440       -0.62417        1.54536
C         -5.14159       -2.09287       -4.90966
C         -5.12645       -0.92624       -3.90314
C         -4.52460        0.30770       -4.60501
C         -6.56794       -0.59545       -3.47701
H         -5.61381       -2.97934       -4.48882
H         -5.69480       -1.82145       -5.80867
H         -4.12957       -2.36138       -5.20944
H         -5.08332        0.54887       -5.50921
H         -4.55604        1.18454       -3.95885
H         -3.48916        0.12822       -4.89334
H         -6.57865        0.22382       -2.75835
H         -7.17197       -0.30092       -4.33503
H         -7.04547       -1.45582       -3.00907
C         -4.77260       -3.78285        1.38073
C         -4.26991       -4.14053       -0.03041
C         -2.98556       -4.98373        0.07586
C         -5.34916       -4.98097       -0.73879
H         -5.66681       -3.16257        1.32481
H         -5.01835       -4.68089        1.94700
H         -4.01908       -3.23132        1.94171
H         -2.60535       -5.22996       -0.91523
H         -2.20262       -4.44716        0.61061
H         -3.17309       -5.91643        0.60732
H         -6.28790       -4.43236       -0.81313
H         -5.03091       -5.26125       -1.74280
H         -5.54764       -5.89966       -0.18688
C         -4.25075        2.91531        4.54390
C         -2.86715        3.20526        3.93457
C         -2.48338        4.67318        4.19667
C         -1.82916        2.30059        4.62993
H         -4.24392        3.07274        5.62227
H         -5.01412        3.56387        4.11546
H         -4.54414        1.88287        4.35466
H         -3.20437        5.35935        3.75438
H         -2.44308        4.87877        5.26623
H         -1.50395        4.89789        3.77686
H         -1.78685        2.51103        5.69832
H         -2.08382        1.24732        4.51383
H         -0.83125        2.46069        4.22269
C         -5.89978        3.34575       -1.26078
C         -4.82644        4.27006       -0.65605
C         -3.98625        4.89734       -1.78489
C         -5.53089        5.40201        0.11567
H         -6.48914        2.87443       -0.47454
H         -6.57913        3.90445       -1.90428
H         -5.44936        2.55481       -1.85907
H         -3.51461        4.13229       -2.40065
H         -4.60588        5.51295       -2.43666
H         -3.19798        5.52754       -1.37319
H         -6.17185        5.98185       -0.54838
H         -6.15807        5.00263        0.91246
H         -4.80580        6.08669        0.55538
C          5.08394       -4.70585       -1.43266
C          5.93818       -3.61221       -0.76434
C          7.19697       -4.27029       -0.16753
C          6.38029       -2.58335       -1.82149
H          4.20380       -4.28166       -1.91478
H          5.65598       -5.23846       -2.19216
H          4.74293       -5.43202       -0.69503
H          7.78069       -4.76329       -0.94487
H          7.83971       -3.52888        0.30684
H          6.93205       -5.02453        0.57321
H          6.96632       -1.78779       -1.36190
H          6.99345       -3.05279       -2.59054
H          5.52200       -2.12749       -2.31368
C          6.34993       -3.00201        4.38614
C          5.02905       -2.25785        4.11198
C          3.90511       -2.94470        4.91041
C          5.18199       -0.80000        4.58454
H          6.28127       -4.04730        4.08547
H          7.17886       -2.54050        3.84978
H          6.59221       -2.98041        5.44861
H          4.14042       -2.96856        5.97420
H          2.95738       -2.42100        4.79096
H          3.76444       -3.97095        4.57194
H          5.95582       -0.28901        4.01203
H          4.25300       -0.24456        4.46110
H          5.45738       -0.75806        5.63814
C          0.94534        5.48536       -0.62046
C          1.33443        4.54954        0.54011
C          2.34567        5.25717        1.45950
C          0.06340        4.24597        1.35084
H          0.23645        4.99744       -1.28771
H          0.47764        6.39542       -0.24505
H          1.81385        5.77837       -1.20843
H          1.91946        6.16677        1.88233
H          2.63720        4.60577        2.28323
H          3.24830        5.53147        0.91443
H         -0.39368        5.16756        1.70992
H         -0.67365        3.73230        0.73624
H          0.28677        3.62579        2.21822
C          6.02500        3.24876       -1.50725
C          4.96169        2.42975       -2.26309
C          4.55679        3.16874       -3.55043
C          5.58210        1.07287       -2.64872
H          6.92732        3.36452       -2.10745
H          5.65930        4.24506       -1.26199
H          6.30033        2.75420       -0.57588
H          4.12680        4.14473       -3.32821
H          5.41857        3.32213       -4.19974
H          3.81641        2.59493       -4.10559
H          4.87414        0.45984       -3.20532
H          6.46140        1.21306       -3.27724
H          5.89420        0.52218       -1.76171
H         -0.53468       -2.26773       -5.03436
H          2.32437       -1.21282       -3.65457
H         -1.15045       -0.82485       -4.22396
H         -2.07917       -2.31847       -4.18439
H          2.86754        0.14995       -4.62770
H          1.46746       -0.79050       -5.14002
