105
-153.06269451
Cl         0.02569        1.91234        3.09610
Pd        -0.44499        1.30853        0.97751
P         -1.08236        0.54296       -1.15270
N         -0.58589       -0.93288       -1.97623
C          0.26450       -1.97445       -1.60852
C          0.34379       -2.47747       -0.28560
C          1.24533       -3.52634       -0.00156
C          1.29753       -4.08850        1.40049
C          2.49191       -5.01491        1.68161
C          2.73094       -5.97822        0.51638
C          3.00501       -5.19761       -0.77665
C          2.02461       -4.07879       -1.02244
C          1.89473       -3.59570       -2.31780
C          1.03051       -2.57354       -2.60723
H          0.95332       -2.19887       -3.61309
H          2.49607       -4.02818       -3.09955
H          4.01616       -4.77455       -0.74602
H          3.55612       -6.66874        0.74174
H          3.39261       -4.40810        1.83896
H          1.31139       -3.25636        2.11283
C         -0.65537       -2.08422        0.73963
C         -0.22364       -1.49178        1.95863
C         -1.14688       -1.35675        2.99948
C         -2.44248       -1.77730        2.85312
C         -2.88536       -2.35496        1.66966
C         -4.31340       -2.84283        1.61421
C         -4.62211       -3.76873        0.42748
C         -3.95673       -3.25995       -0.85349
C         -2.43338       -3.16714       -0.67868
C         -1.99679       -2.49419        0.60043
H         -1.99302       -4.17066       -0.71161
H         -4.35534       -2.26844       -1.10116
H         -5.70723       -3.87309        0.28583
H         -4.97945       -1.97377        1.58742
H         -3.13740       -1.66348        3.66792
H         -0.82863       -0.89567        3.91798
N          1.08075       -1.00553        2.13823
P          1.64326        0.22808        1.01198
C          2.62398       -0.31635       -0.37301
C          2.44007        0.30199       -1.58474
C          3.23141       -0.05499       -2.66115
C          4.21285       -1.02779       -2.52214
C          4.40246       -1.61572       -1.27794
C          3.60824       -1.25909       -0.20287
H          3.74669       -1.71158        0.76627
H          5.17313       -2.35760       -1.15732
C          5.06904       -1.41023       -3.67835
H          3.08770        0.41835       -3.61723
H          1.67112        1.04987       -1.68302
C          2.57968        1.52962        1.81888
C          3.30638        1.25887        2.95315
C          4.02609        2.27030        3.56341
C          4.02921        3.55419        3.03446
C          3.28927        3.80563        1.88685
C          2.57107        2.79323        1.27679
H          1.99783        2.98475        0.38284
H          3.27510        4.80061        1.47589
C          4.77682        4.65093        3.70952
H          4.58861        2.06817        4.45885
H          3.31222        0.25907        3.35615
H          1.24763       -0.58880        3.04506
H         -0.85251       -0.84933       -2.94932
C         -0.62934        1.94151       -2.19591
C         -0.94513        3.22190       -1.80944
C         -0.58300        4.29655       -2.59841
C          0.10706        4.09856       -3.78595
C          0.40660        2.79956       -4.17207
C          0.03936        1.72783       -3.37921
H          0.28969        0.72363       -3.67644
H          0.93118        2.63252       -5.09736
C          0.48104        5.25347       -4.64845
H         -0.83455        5.29847       -2.29496
H         -1.47651        3.37567       -0.88590
C         -2.87724        0.49117       -1.12492
C         -3.53402        0.64453       -2.32316
C         -4.91662        0.60324       -2.36249
C         -5.65044        0.42189       -1.19840
C         -4.96904        0.26232       -0.00026
C         -3.58717        0.28574        0.03299
H         -3.05659        0.15464        0.96232
H         -5.52969        0.12843        0.90876
C         -7.13730        0.35517       -1.23752
H         -5.43396        0.71597       -3.29986
H         -2.96163        0.79725       -3.22501
Cl        -2.27560        2.62340        0.97879
H          2.99688       -5.87601       -1.63943
H          2.34387       -5.56888        2.61939
H          1.84478       -6.61084        0.37967
H          0.36009       -4.62361        1.59299
H         -4.21427       -3.90126       -1.70828
H         -2.00255       -2.62906       -1.52967
H         -4.54453       -3.35326        2.55806
H         -4.25592       -4.77938        0.64815
H          4.52884       -1.30263       -4.62005
H          5.95921       -0.78160       -3.72633
H          5.39329       -2.44901       -3.60073
H          4.14535        5.15485        4.44244
H          5.65566        4.26697        4.22939
H          5.11778        5.39635        2.98969
H         -0.31801        5.48452       -5.35417
H          0.67059        6.14598       -4.05045
H          1.38511        5.04115       -5.22089
H         -7.47554       -0.67619       -1.34709
H         -7.57270        0.75689       -0.32150
H         -7.53615        0.93141       -2.07350
