111
-148.55638157
P         -2.56477        2.02919        0.81277
P          0.12545        0.39529        0.49720
C         -1.49695        1.76965        2.25509
C         -0.30455        1.09606        2.10200
C         -3.38815        3.68641        0.85554
C         -2.74904        4.65119       -0.11919
C         -1.87148        2.23034        3.50116
H         -2.81467        2.73749        3.62110
C         -1.04196        2.02338        4.58990
H         -1.33333        2.38338        5.56311
C          0.15638        1.35390        4.43187
H          0.80081        1.19078        5.27997
C          0.52400        0.88378        3.18398
H          1.44771        0.34366        3.04589
Pd        -1.30869        1.40084       -1.01728
Cl        -2.90998        2.24479       -2.34048
Cl         0.02706        0.71710       -2.69119
C         -4.85890        3.34277        0.55502
C         -4.04846        0.92375        0.77831
H         -3.23677        5.62837       -0.09161
H         -1.68860        4.79410        0.10177
H         -2.82224        4.27665       -1.14088
H         -5.02642        3.42934       -0.52746
H         -5.52904        4.08285        1.01836
H         -4.09842        0.51385       -0.23945
C         -5.21447        1.90094        1.01901
C         -3.93060       -0.18670        1.79944
H         -3.28755        4.05760        1.88325
H         -5.45271        1.90988        2.09152
H         -6.12556        1.54061        0.51758
H         -4.81563       -0.82719        1.79789
H         -3.05879       -0.81367        1.60067
H         -3.81739        0.22198        2.80531
C         -1.14275       -3.97833        0.27612
C         -1.03855       -3.34354        1.54290
C         -0.62889       -2.02090        1.58172
C         -0.40915       -1.31431        0.42843
C         -0.63591       -1.88710       -0.79477
C         -1.04225       -3.20385       -0.90970
O         -1.26215       -5.38941        0.19336
C         -1.36325       -4.03602        2.87739
H         -0.47073       -1.52687        2.52457
H         -0.48170       -1.28520       -1.67366
C         -1.37416       -3.72803       -2.31650
C          4.50103        0.83978       -0.68459
C          3.79300       -0.34483       -1.00973
C          2.46461       -0.43606       -0.63239
C          1.86021        0.55783        0.09140
C          2.56675        1.66143        0.49243
C          3.90370        1.81137        0.15973
O          5.78920        1.07128       -1.23604
C          4.41939       -1.50319       -1.80136
H          1.87292       -1.28720       -0.91911
H          2.05306        2.41297        1.06669
C          4.67453        3.02986        0.69187
C         -0.05616       -4.32074        3.63521
C         -2.25412       -3.11033        3.73539
C         -2.14027       -5.34946        2.68155
C         -0.07247       -3.90227       -3.11664
C         -2.13896       -5.06213       -2.27904
C         -2.27978       -2.70661       -3.04098
C         -0.00467       -6.04260        0.14180
H         -0.25803       -4.79403        4.59578
H          0.59248       -4.98292        3.06480
H          0.49319       -3.39894        3.82416
H         -2.54357       -3.60225        4.66366
H         -1.74256       -2.18755        4.00384
H         -3.16481       -2.84795        3.19810
H         -2.44310       -5.77337        3.63872
H         -3.03629       -5.18050        2.08531
H         -1.53445       -6.09326        2.16943
H          0.59072       -4.62013       -2.63750
H         -0.28032       -4.25799       -4.12537
H          0.46334       -2.95711       -3.19902
H         -2.44753       -5.36644       -3.27889
H         -1.52267       -5.85837       -1.86840
H         -3.03055       -4.97642       -1.65887
H         -2.59622       -3.08761       -4.01149
H         -3.17349       -2.50008       -2.45284
H         -1.76732       -1.76215       -3.21597
H          0.56199       -5.69563       -0.72092
H          0.56504       -5.82803        1.04454
H         -0.16126       -7.11851        0.06181
C          5.76832        1.75633       -2.48216
C          5.92648       -1.62472       -1.51326
C          3.77431       -2.85019       -1.39995
C          4.18110       -1.27445       -3.30178
C          4.11689        3.46895        2.06516
C          6.16360        2.69812        0.89983
C          4.52540        4.19741       -0.29510
H          6.10423       -1.74486       -0.44512
H          6.35570       -2.48420       -2.02763
H          6.46661       -0.74103       -1.84332
H          4.30122       -3.68449       -1.86243
H          3.80856       -2.99001       -0.31982
H          2.73566       -2.91294       -1.72054
H          4.63713       -0.34555       -3.63590
H          4.60045       -2.08807       -3.89298
H          3.11436       -1.21470       -3.51687
H          4.73970        4.24791        2.50442
H          3.10995        3.87487        1.98131
H          4.09176        2.62942        2.75949
H          6.69532        3.54131        1.34006
H          6.27678        1.84164        1.56362
H          6.65191        2.45725       -0.04109
H          3.47575        4.45911       -0.42650
H          4.92682        3.94096       -1.27255
H          5.05179        5.08158        0.06351
H          4.74226        1.98775       -2.77109
H          6.34088        2.68016       -2.40124
H          6.23036        1.13545       -3.24949
