64
-97.21484295
Cl        -1.56601       -1.39460       -2.55743
Cl         1.59021       -1.48747       -2.90179
P          1.94999       -0.60271        0.25326
C          2.17650       -2.27512        1.01583
C          3.72515       -0.17624       -0.08371
P         -1.27457       -0.12110        0.41878
C          1.26854        0.61425        1.43339
C         -0.16118        0.83790        1.51655
C         -0.37613        1.94110        2.44280
C          0.91904        2.38206        2.93125
C          1.94008        1.55055        2.32025
H         -1.34386        2.32083        2.77655
H          1.09240        3.17752        3.65958
Pd         0.19258       -0.92674       -1.24378
H          3.01798        1.62333        2.47747
C         -5.02076        2.12752       -0.91710
C         -4.80973        0.81995       -1.30531
C         -3.66643        0.15624       -0.89807
C         -2.73801        0.79538       -0.10802
C         -2.95362        2.09773        0.28387
C         -4.09218        2.76837       -0.12212
H         -5.90946        2.64795       -1.23517
H         -5.53132        0.31710       -1.92804
H         -3.48837       -0.86101       -1.20548
H         -2.22491        2.59472        0.89824
H         -4.25336        3.78970        0.18191
C         -2.62149       -3.93943        2.47913
C         -2.38781       -2.79883        3.22279
C         -1.98638       -1.63482        2.59160
C         -1.82033       -1.62357        1.22602
C         -2.05798       -2.75480        0.48071
C         -2.45905       -3.91951        1.10758
H         -2.93379       -4.84667        2.97018
H         -2.51612       -2.81470        4.29264
H         -1.79398       -0.73613        3.15614
H         -1.93516       -2.71501       -0.58952
H         -2.64524       -4.80777        0.52654
C          4.07024       -0.27121       -1.55404
H          3.88424        0.84568        0.28463
C          4.48679       -1.20359        0.77670
H          4.66834       -0.79093        1.78002
C          3.69214       -2.53110        0.90133
H          5.48152       -1.38495        0.34385
C          1.66933       -2.27398        2.44164
H          1.60579       -2.98659        0.40329
H          4.03489       -3.10801        1.77228
H          3.90069       -3.16407        0.02660
H          2.21152       -1.53972        3.04081
H          0.61008       -2.01413        2.48623
H          1.79723       -3.25043        2.91480
H          3.47917        0.41950       -2.15709
H          5.12517       -0.05144       -1.73220
H          3.87573       -1.27814       -1.92672
Fe         0.79938        2.48095        0.88315
C         -0.06370        2.73900       -0.96171
C          1.30307        2.27978       -1.10123
C          2.17402        3.23745       -0.44658
C          1.34263        4.29237        0.10735
C         -0.04183        3.97777       -0.20398
H         -0.94454        2.25636       -1.38953
H          1.61607        1.40058       -1.66617
H          3.26473        3.19273       -0.40776
H          1.69656        5.17399        0.64682
H         -0.91008        4.59222        0.04586
