111
-148.55208992
P         -1.65668        2.79488       -0.17713
P         -0.44773       -0.10171        0.50688
C         -1.70855        2.14381        1.51977
C         -1.25096        0.87146        1.79661
C         -0.48581        4.22124       -0.27693
C          0.69063        3.87932       -1.16675
C         -2.17767        2.93974        2.54516
H         -2.49389        3.94796        2.33323
C         -2.21522        2.44974        3.83927
H         -2.58580        3.07104        4.63821
C         -1.77237        1.16927        4.10920
H         -1.79637        0.78965        5.11741
C         -1.27833        0.38129        3.08511
H         -0.89508       -0.60779        3.28262
Pd        -1.18977        0.91328       -1.42439
Cl        -2.30832        1.80687       -3.14607
Cl        -0.58258       -1.00679       -2.43711
C         -1.36612        5.37321       -0.80313
C         -3.22606        3.62550       -0.70006
H          0.35050        3.61889       -2.17122
H          1.38196        4.72059       -1.25690
H          1.24837        3.02348       -0.78025
H         -1.19487        5.48059       -1.88298
H         -1.05015        6.32964       -0.36000
H         -3.35270        3.38327       -1.76312
C         -2.87940        5.11741       -0.54720
C         -4.42980        3.15629        0.08889
H         -0.16006        4.41969        0.75253
H         -3.14392        5.44288        0.46818
H         -3.50104        5.72548       -1.22226
H         -4.56174        2.07537        0.00178
H         -4.32256        3.38775        1.14882
H         -5.34612        3.63835       -0.25929
C         -1.01791       -4.60981        0.75104
C          0.27890       -4.05824        0.91070
C          0.42010       -2.68299        0.83262
C         -0.66919       -1.86758        0.67108
C         -1.93521       -2.38796        0.61638
C         -2.14863       -3.75494        0.69450
O         -1.17857       -6.01416        0.61153
C          1.52928       -4.92716        1.11834
H          1.39366       -2.22759        0.87857
H         -2.75947       -1.70589        0.49400
C         -3.59054       -4.28609        0.67491
C          3.84567        1.34288        0.04464
C          3.35341        0.31657       -0.80180
C          2.04237       -0.09510       -0.63617
C          1.26829        0.39821        0.37973
C          1.77186        1.31510        1.26487
C          3.06954        1.78355        1.14716
O          5.09187        1.96271       -0.23816
C          4.19220       -0.32095       -1.91946
H          1.58592       -0.77742       -1.33183
H          1.12432        1.68281        2.04106
C          3.59695        2.79161        2.17977
C          2.60594       -4.15554        1.91537
C          1.19508       -6.19443        1.92588
C          2.11561       -5.30858       -0.24950
C         -4.55429       -3.26966        1.32891
C         -4.02818       -4.50922       -0.78078
C         -3.71373       -5.59563        1.47499
C         -1.12998       -6.47202       -0.73410
H          3.43758       -4.81003        2.17542
H          3.01925       -3.32860        1.33972
H          2.19181       -3.75721        2.84125
H          2.09219       -6.78002        2.12522
H          0.74174       -5.93213        2.88120
H          0.49757       -6.83379        1.39054
H          3.02236       -5.90186       -0.13436
H          1.40705       -5.88897       -0.83496
H          2.36543       -4.41674       -0.82331
H         -4.65457       -2.36546        0.73048
H         -5.55211       -3.69507        1.43376
H         -4.20466       -2.98764        2.32173
H         -3.97489       -3.57868       -1.34545
H         -3.38813       -5.23338       -1.27877
H         -5.05318       -4.87582       -0.82906
H         -3.36528       -5.45446        2.49753
H         -4.74833       -5.93571        1.51296
H         -3.12295       -6.39152        1.02892
H         -0.33319       -7.20794       -0.84080
H         -2.07296       -6.95349       -0.99219
H         -0.94937       -5.63758       -1.41305
C          4.99778        3.07137       -1.12441
C          5.68983       -0.32388       -1.56363
C          3.77961       -1.79616       -2.12838
C          3.95727        0.44737       -3.22879
C          5.11115        2.61946        2.39714
C          3.28934        4.21888        1.70189
C          2.91623        2.57597        3.55072
H          6.07975        0.68667       -1.47431
H          5.85706       -0.83083       -0.61386
H          6.27329       -0.83549       -2.32870
H          4.44823       -2.28911       -2.83365
H          3.82183       -2.34463       -1.18792
H          2.77141       -1.88227       -2.53041
H          4.53061        0.01093       -4.04616
H          2.90332        0.42349       -3.50510
H          4.24964        1.49039       -3.13169
H          5.66924        2.83773        1.49001
H          5.47402        3.28939        3.17624
H          5.34238        1.59699        2.69384
H          2.21569        4.36311        1.58628
H          3.65294        4.95673        2.41657
H          3.75613        4.42302        0.74141
H          1.85924        2.83696        3.52199
H          3.37855        3.20087        4.31449
H          3.00546        1.53757        3.86880
H          5.58361        2.87504       -2.02214
H          3.95836        3.25036       -1.40196
H          5.40318        3.96022       -0.64119
