115
-277.93421055
P         -1.72946        0.89889        0.23348
P          1.76130        0.18851        0.12324
C         -2.65011        2.43386        0.08531
C         -3.95232        2.46545        0.53898
H         -4.45842        1.54328        0.77931
C         -4.54357        3.68300        0.81833
H         -5.50911        3.72300        1.29597
C         -3.83601        4.86222        0.63159
C         -2.58293        4.81632        0.04313
H         -2.03966        5.74034       -0.08070
C         -1.98208        3.60180       -0.21523
H         -0.96641        3.56902       -0.57467
C         -2.70789       -0.42392       -0.50206
C         -2.84107       -0.50857       -1.86842
H         -2.45229        0.27833       -2.49265
C         -3.42313       -1.62071       -2.43783
H         -3.47948       -1.73445       -3.50920
C         -3.87875       -2.65082       -1.63803
C         -3.78803       -2.53502       -0.26283
H         -4.11788       -3.35720        0.35211
C         -3.20648       -1.42160        0.30461
H         -3.10255       -1.35305        1.37507
C         -1.47906        0.56348        2.01805
C         -0.83567       -0.64272        2.20601
H         -0.51636       -1.20260        1.34764
C         -0.42113       -1.06878        3.46525
C         -0.87538       -0.35551        4.56748
H         -0.60390       -0.68181        5.55752
C         -1.52803        0.84866        4.39538
H         -1.76242        1.44849        5.25853
C         -1.73465        1.38689        3.12487
C          1.61396        0.86617        1.81275
C          0.99155        2.10283        1.82427
H          0.62378        2.51567        0.89956
C          0.66816        2.74350        3.02099
C          1.20597        2.22442        4.19329
H          1.00366        2.71757        5.12939
C          1.84692        1.00183        4.18905
H          2.14441        0.55857        5.12417
C          1.95765        0.24800        3.02141
C         -1.88513        2.88893        3.03863
H         -2.54985        3.23202        3.84041
H         -2.42909        3.14892        2.13495
C         -0.52084        3.66797        3.08731
H         -0.46585        4.40285        2.27734
H         -0.45780        4.26508        4.00385
C          0.77436       -1.97753        3.57540
H          0.60685       -2.86735        2.95866
H          0.83761       -2.35822        4.60058
C          2.10992       -1.24832        3.17238
H          2.89539       -1.45768        3.90686
H          2.49393       -1.65236        2.23909
C          1.58406       -1.59958       -0.08109
C          0.37141       -2.17358       -0.40055
C          2.66818       -2.39578        0.21622
C          0.20051       -3.53690       -0.27133
C          2.49497       -3.75585        0.36510
C          1.24446       -4.32563        0.18521
C          3.30470        0.74022       -0.61957
C          3.94708       -0.01262       -1.57472
C          3.83106        1.94547       -0.21705
C          5.12759        0.44087       -2.12540
H          3.51741       -0.94569       -1.90205
C          5.01329        2.39800       -0.76693
H          3.32228        2.52597        0.53532
C          5.66574        1.65045       -1.72702
H          5.64865       -0.14144       -2.86844
H          5.45486        3.33024       -0.45218
Pd         0.08562        1.05021       -1.26943
Cl        -1.37962        2.08577       -2.63362
Cl         1.60585        1.11121       -2.92437
H          3.30194       -4.37136        0.72863
H          3.62876       -1.94574        0.41494
H         -0.76231       -4.00025       -0.43873
H         -0.46416       -1.55507       -0.68011
C         -5.74251        6.25680        1.55943
C         -4.20301        6.12084        1.37839
C         -3.43530        6.05061        2.73808
F         -6.01791        7.45976        2.08674
F         -6.30580        6.14319        0.34754
F         -6.19215        5.28041        2.35960
F         -3.76812        7.19411        0.71375
F         -2.12435        6.02255        2.45951
F         -3.73397        7.12263        3.48380
F         -3.76669        4.91797        3.37174
C         -2.97115       -4.85126       -2.25202
C         -4.25038       -3.96353       -2.27543
C         -5.45518       -4.62151       -1.54164
F         -2.51700       -4.92522       -0.99304
F         -3.25461       -6.06969       -2.73547
F         -2.05109       -4.24415       -3.01589
F         -4.60040       -3.77581       -3.55065
F         -5.08800       -4.98198       -0.30397
F         -6.43669       -3.70947       -1.47559
F         -5.86496       -5.69143       -2.24084
C          8.12371        1.42752       -1.44537
C          6.99508        2.12781       -2.25483
C          7.10754        1.86150       -3.78520
F          7.99187        1.80652       -0.16527
F          7.97434        0.09802       -1.54087
F          9.31895        1.80692       -1.92148
F          7.11475        3.44473       -2.06460
F          6.01331        2.37490       -4.36718
F          8.20863        2.46584       -4.25782
F          7.16356        0.54125       -4.00946
C          2.11613       -6.65161        0.70396
C          0.92218       -5.65896        0.81419
C          0.53559       -5.34590        2.29382
F          3.14115       -6.21359        1.44801
F          1.71840       -7.86331        1.12283
F          2.48413       -6.70576       -0.58492
F         -0.13362       -6.21702        0.21708
F         -0.54741       -4.55621        2.26926
F          0.27418       -6.48569        2.94799
F          1.53998       -4.67719        2.87610
