111
-148.55460217
P         -1.69973        2.70968        0.97306
P         -0.39055       -0.13946        0.52629
C         -1.20205        1.70556        2.40228
C         -0.70234        0.43527        2.20614
C         -0.62519        4.20687        0.82863
C          0.19519        4.14861       -0.44282
C         -1.29204        2.21677        3.68128
H         -1.64417        3.22470        3.82756
C         -0.90691        1.44254        4.76225
H         -0.98131        1.84037        5.76118
C         -0.42140        0.16432        4.56269
H         -0.11610       -0.43580        5.40401
C         -0.30836       -0.33722        3.27840
H          0.10292       -1.31851        3.10067
Pd        -1.67624        1.23882       -0.81052
Cl        -3.20585        2.51339       -1.83353
Cl        -1.42683       -0.31350       -2.41998
C         -1.62850        5.37683        0.88221
C         -3.35270        3.51721        1.18770
H          0.84787        3.27274       -0.45828
H         -0.45538        4.08481       -1.31755
H          0.81944        5.03792       -0.55737
H         -1.82306        5.71947       -0.14329
H         -1.18319        6.23974        1.39992
H         -3.82767        3.49504        0.19846
C         -2.97254        4.96446        1.54820
C         -4.22558        2.80775        2.20098
H          0.01908        4.20675        1.71743
H         -2.88607        5.04883        2.64014
H         -3.78127        5.65463        1.26283
H         -4.38062        1.76219        1.92514
H         -3.77077        2.82013        3.19169
H         -5.20477        3.28446        2.28564
C         -0.61830       -4.65416       -0.01317
C         -1.78065       -3.86527       -0.21128
C         -1.69408       -2.49998        0.00782
C         -0.49851       -1.91267        0.32726
C          0.64994       -2.65571        0.41544
C          0.63256       -4.02563        0.21357
O         -0.71129       -6.07147       -0.01281
C         -3.12060       -4.46727       -0.66326
H         -2.56125       -1.86906       -0.08540
H          1.57048       -2.14310        0.63664
C          1.95761       -4.80342        0.24729
C          3.73354        1.28228       -0.78438
C          3.24809        1.63370        0.50382
C          2.00097        1.16643        0.88282
C          1.22042        0.45170        0.01235
C          1.62627        0.23309       -1.27698
C          2.86242        0.66671       -1.72222
O          5.10232        1.47098       -1.10535
C          4.02363        2.50892        1.50268
H          1.62830        1.35230        1.87505
H          0.94824       -0.27188       -1.94329
C          3.19590        0.47148       -3.21032
C         -3.94520       -4.86211        0.57079
C         -3.92643       -3.43888       -1.49006
C         -2.89966       -5.69319       -1.56817
C          1.91303       -6.01329       -0.70363
C          3.12821       -3.90716       -0.21971
C          2.23754       -5.26933        1.68380
C         -0.98355       -6.63365        1.26445
H         -3.42376       -5.60284        1.17239
H         -4.13283       -3.99428        1.20261
H         -4.90753       -5.28203        0.27917
H         -4.27148       -2.60858       -0.87592
H         -3.32168       -3.03575       -2.30206
H         -4.81055       -3.90122       -1.92825
H         -2.27569       -5.43145       -2.42208
H         -2.40753       -6.49976       -1.03038
H         -3.84680       -6.07835       -1.94502
H          1.16283       -6.73558       -0.39129
H          1.66950       -5.69564       -1.71695
H          2.87382       -6.52676       -0.73032
H          2.90843       -3.45581       -1.18683
H          3.33558       -3.10914        0.49171
H          4.04394       -4.48889       -0.32263
H          1.44702       -5.92172        2.04710
H          3.17833       -5.81628        1.74063
H          2.30082       -4.41693        2.35984
H         -0.17994       -7.31546        1.54220
H         -1.06999       -5.84773        2.01581
H         -1.91295       -7.20139        1.22327
C          5.90190        0.34817       -0.77315
C          4.55419        1.62896        2.64627
C          5.19514        3.25397        0.83970
C          3.08106        3.58336        2.08864
C          1.99926        0.94050       -4.06818
C          4.41671        1.29738       -3.65057
C          3.45760       -1.01926       -3.48206
H          3.73677        1.12318        3.15941
H          5.23425        0.86601        2.27219
H          5.09225        2.22763        3.38079
H          4.84820        3.82938       -0.01790
H          5.67132        3.93995        1.53987
H          5.95600        2.56022        0.48988
H          2.64505        4.18644        1.29318
H          2.26864        3.14159        2.66310
H          3.62320        4.25256        2.75622
H          1.11654        0.32462       -3.90516
H          1.73778        1.97159       -3.83206
H          2.23832        0.88864       -5.12997
H          4.57727        1.21901       -4.72556
H          4.27848        2.34921       -3.40269
H          5.32300        0.95482       -3.15685
H          3.67609       -1.19062       -4.53572
H          2.58875       -1.62125       -3.21760
H          4.30300       -1.38242       -2.90054
H          6.93226        0.53871       -1.07410
H          5.86797        0.16994        0.30042
H          5.53394       -0.53835       -1.28747
