45
-71.81222026
C          1.35999        0.74991        2.59934
P          1.29391        0.66787        0.77968
P         -1.39075        0.26095       -0.93941
C         -1.54792       -0.14367       -2.70963
Cl         1.38189       -2.40923        1.48006
H          1.93201        1.61885        2.91171
H         -2.25312        0.53215       -3.18479
Cl        -1.05573       -2.88785       -0.83094
C          0.41549        2.08839        0.09630
C         -0.69689        1.90831       -0.69693
C         -1.32466        2.99665       -1.26812
C         -0.84252        4.27220       -1.03278
C          0.26170        4.45416       -0.22357
C          0.89252        3.36002        0.34191
H         -2.19340        2.84295       -1.88843
H         -1.33295        5.12315       -1.47615
H          0.63527        5.44727       -0.03544
H          1.75895        3.48936        0.97098
Pd         0.07984       -1.19613        0.11099
H         -1.90326       -1.16367       -2.82507
H          1.83299       -0.14519        2.99305
H         -0.58146       -0.04886       -3.19652
C         -5.38549       -0.13552        1.22330
C         -4.75855       -1.25446        0.71266
C         -3.54624       -1.12531        0.06132
C         -2.96763        0.11474       -0.08289
C         -3.58815        1.23105        0.43223
C         -4.80045        1.10770        1.08641
H         -6.33004       -0.23314        1.73318
H         -5.20861       -2.22702        0.82622
H         -3.02968       -1.99170       -0.31618
H         -3.12035        2.19551        0.32754
H         -5.28658        1.98105        1.48927
C          5.47390        0.30841       -1.01040
C          4.96462       -0.70621       -0.22502
C          3.69465       -0.59044        0.30843
C          2.94124        0.53472        0.06354
C          3.44497        1.54396       -0.72680
C          4.71413        1.43283       -1.26498
H          6.46316        0.22049       -1.42910
H          5.55157       -1.58935       -0.03298
H          3.27102       -1.38754        0.89576
H          2.84252        2.41369       -0.92760
H          5.10860        2.22309       -1.88244
H          0.35348        0.82377        3.00135
