59
-75.79991397
Cl         1.71065        0.34905        2.34906
P          1.61628       -0.15600       -0.88264
P         -1.56123       -0.13465       -0.76745
C          0.59410        0.11490       -2.39970
H          0.36201        1.17946       -2.48163
H          1.18509       -0.15812       -3.27975
C         -0.66475       -0.69597       -2.27870
H         -0.43518       -1.75968       -2.17669
H         -1.32416       -0.57850       -3.14428
C          2.71734       -1.61815       -1.20202
H          2.59340       -1.81296       -2.27596
C          2.91173        1.14473       -0.62497
H          2.97904        1.29091        0.45994
C         -3.04129       -1.15628       -0.32986
H         -3.06259       -1.17689        0.76741
C         -2.42442        1.45484       -1.14371
H         -1.87191        1.95620       -1.94781
C          4.13410       -1.07174       -0.94968
H          4.44402       -1.31623        0.07343
H          4.86120       -1.57736       -1.60300
C          4.19190        0.46782       -1.14387
H          4.30772        0.70057       -2.21145
H          5.07827        0.89480       -0.65015
C         -4.23822       -0.34371       -0.87963
H         -4.83138       -0.98238       -1.54915
H         -4.91878       -0.08376       -0.05573
C         -3.80001        0.95168       -1.62540
H         -4.55537        1.74130       -1.50336
H         -3.75584        0.75216       -2.70702
C          2.34153       -2.87230       -0.41228
H          2.96162       -3.70993       -0.76087
H          1.31220       -3.15178       -0.67258
C          2.57865        2.46912       -1.30133
H          3.46050        3.12361       -1.26040
H          2.40494        2.28961       -2.37008
C         -2.93606       -2.57876       -0.86349
H         -3.90713       -3.08134       -0.75225
H         -2.75351       -2.53875       -1.94528
C         -2.47945        2.34158        0.09588
H         -3.08498        1.83778        0.86125
H         -1.47446        2.41298        0.53365
C          2.46836       -2.74794        1.09881
H          3.50336       -2.60490        1.41168
H          2.10118       -3.63962        1.61245
H          1.90014       -1.90081        1.47938
C          1.38327        3.17040       -0.67412
H          1.56372        3.39065        0.37975
H          0.48960        2.54778       -0.71875
H          1.15065        4.11381       -1.17315
C         -1.85225       -3.38519       -0.16342
H         -0.88451       -2.88765       -0.23020
H         -1.74161       -4.38501       -0.58915
H         -2.07244       -3.50201        0.89948
C         -3.02182        3.73644       -0.18010
H         -2.41851        4.25115       -0.93037
H         -4.04492        3.70278       -0.55749
H         -3.02697        4.35720        0.71876
Cl        -1.51662        0.23383        2.40982
Pd         0.08091       -0.03690        0.85397
