115
-277.94436401
P         -1.71457        0.41958        0.15149
P          1.86748       -0.19719        0.17412
C         -2.23151        2.12021       -0.12592
C         -3.52908        2.46169        0.19260
H         -4.24090        1.69090        0.44481
C         -3.86670        3.79336        0.32908
H         -4.83683        4.07422        0.70604
C         -2.90997        4.77804        0.13490
C         -1.65128        4.42232       -0.32122
H         -0.91599        5.19996       -0.45925
C         -1.30880        3.09189       -0.44800
H         -0.30851        2.81915       -0.74018
C         -3.01157       -0.64783       -0.52536
C         -3.19520       -1.90423        0.00543
H         -2.58314       -2.23768        0.82572
C         -4.17585       -2.73160       -0.49949
H         -4.32837       -3.72031       -0.09579
C         -4.98125       -2.30733       -1.53861
C         -4.79049       -1.04778       -2.06976
H         -5.41430       -0.73453       -2.89214
C         -3.81187       -0.21900       -1.55983
H         -3.66111        0.76143       -1.98219
C         -1.48991        0.06562        1.92872
C         -0.82234       -1.13178        2.10386
H         -0.44495       -1.64859        1.23865
C         -0.45634       -1.58498        3.36910
C         -0.96326       -0.90525        4.46991
H         -0.72626       -1.25460        5.46090
C         -1.62133        0.29730        4.30606
H         -1.88915        0.87386        5.17536
C         -1.79126        0.86460        3.04273
C          1.63690        0.39093        1.88448
C          0.97744        1.60646        1.90173
H          0.61562        2.01698        0.97397
C          0.61353        2.21833        3.10003
C          1.12139        1.68344        4.27800
H          0.88592        2.15696        5.21643
C          1.77731        0.46875        4.26999
H          2.04624        0.00871        5.20580
C          1.94228       -0.25728        3.09045
C         -1.93364        2.37116        2.98282
H         -2.64524        2.70043        3.74861
H         -2.40980        2.65287        2.04827
C         -0.57288        3.14292        3.14020
H         -0.46277        3.90986        2.36589
H         -0.55883        3.70219        4.08237
C          0.73009       -2.49801        3.51658
H          0.60051       -3.36481        2.85953
H          0.73490       -2.91823        4.52843
C          2.08672       -1.75893        3.22241
H          2.81866       -1.98536        4.00579
H          2.53568       -2.15755        2.31693
C          2.22631       -1.95624        0.06754
C          3.50083       -2.37800        0.38308
C          1.21541       -2.87011       -0.13747
C          3.73160       -3.71587        0.63645
C          1.44792       -4.20528        0.11619
C          2.68937       -4.62542        0.56825
C          3.24861        0.69036       -0.58216
C          3.99991        0.12140       -1.58488
C          3.55620        1.95085       -0.12452
C          5.05834        0.81565       -2.13503
H          3.75416       -0.86528       -1.94360
C          4.61456        2.64436       -0.67197
H          2.98049        2.38781        0.67390
C          5.36924        2.08284       -1.68382
H          5.66304        0.38356       -2.91684
H          4.87732        3.62630       -0.31229
Pd         0.09660        0.13240       -1.33010
Cl        -1.44429        0.63134       -2.88926
Cl         1.55309       -0.43175       -2.94349
H          0.64234       -4.92009        0.06822
H          0.23708       -2.54182       -0.44713
H          4.68758       -4.05380        1.00530
H          4.28473       -1.65224        0.53490
C         -4.56012        6.61017        0.72736
C         -3.07564        6.14404        0.75194
C         -2.50226        6.02537        2.20016
F         -5.00517        6.48502       -0.53167
F         -5.28922        5.83683        1.54364
F         -4.62391        7.89337        1.11542
F         -2.34674        7.04391        0.08736
F         -3.08505        4.98830        2.81801
F         -1.18994        5.78072        2.09077
F         -2.71465        7.16550        2.87082
C         -5.31948       -4.31362       -2.97491
C         -6.02797       -3.21900       -2.12682
C         -6.90856       -3.82290       -0.99332
F         -6.23688       -5.15268       -3.47921
F         -4.66439       -3.69160       -3.96695
F         -4.44621       -4.97512       -2.20129
F         -6.83267       -2.52970       -2.94043
F         -7.35938       -2.80425       -0.24580
F         -7.93879       -4.48664       -1.54003
F         -6.16634       -4.64522       -0.23875
C          6.23128        4.29409       -2.52192
C          6.57225        2.80050       -2.24075
C          7.75002        2.63969       -1.23733
F          5.11591        4.32147       -3.26668
F          6.01765        4.93253       -1.36298
F          7.24790        4.86024       -3.19036
F          6.94275        2.24472       -3.39763
F          8.01580        1.32842       -1.13864
F          8.82405        3.29838       -1.69771
F          7.37788        3.11645       -0.04027
C          2.26729       -5.65401        2.75043
C          2.82533       -5.92642        1.31804
C          2.08868       -7.08738        0.59004
F          2.41661       -6.74733        3.51027
F          2.95893       -4.62587        3.26251
F          0.97842       -5.30444        2.66008
F          4.11251       -6.26250        1.43341
F          0.77213       -6.83894        0.55475
F          2.57173       -7.15278       -0.65982
F          2.33173       -8.23601        1.24043
