105
-153.06064679
Cl         0.25304        3.44636        1.84397
Pd        -0.15575        1.90894        0.25421
P         -0.73629        0.24159       -1.32932
N          0.12868       -1.17583       -1.95150
C          0.22055       -2.49997       -1.53317
C         -0.09797       -2.96225       -0.22699
C          0.23161       -4.28722        0.13458
C          0.14334       -4.71001        1.58320
C         -0.01607       -6.22626        1.76058
C          1.08049       -6.96719        0.98905
C          1.03054       -6.62566       -0.51031
C          0.73239       -5.17663       -0.81952
C          0.95819       -4.72286       -2.11196
C          0.73182       -3.41492       -2.45328
H          0.95677       -3.07459       -3.44933
H          1.34203       -5.41103       -2.84616
H          1.97942       -6.89810       -0.98976
H          2.06037       -6.68539        1.39471
H         -0.00728       -6.50325        2.82429
H          1.05798       -4.37745        2.08887
C         -0.69246       -2.08114        0.81346
C          0.12884       -1.09386        1.41792
C         -0.33808       -0.41107        2.54173
C         -1.59369       -0.66211        3.03134
C         -2.43229       -1.59456        2.42724
C         -3.80355       -1.81392        3.01024
C         -4.39849       -3.18010        2.63936
C         -4.30945       -3.40821        1.12758
C         -2.85429       -3.34669        0.63188
C         -1.98715       -2.31025        1.31241
H         -2.39247       -4.33199        0.75608
H         -4.90142       -2.64068        0.61697
H         -5.43708       -3.26565        2.98933
H         -4.46553       -1.01331        2.65958
H         -1.95200       -0.11758        3.88836
H          0.28434        0.33916        2.99403
N          1.28755       -0.72235        0.74137
P          1.82866        0.89690        0.99882
C          2.90329        1.42044       -0.33013
C          3.13345        2.76333       -0.51178
C          3.87526        3.18920       -1.59865
C          4.37685        2.27255       -2.51354
C          4.13843        0.92018       -2.30614
C          3.39639        0.49538       -1.21898
H          3.18976       -0.55174       -1.06800
H          4.52992        0.20236       -3.00656
C          5.18096        2.72889       -3.68074
H          4.05820        4.23934       -1.74920
H          2.70171        3.46984        0.18000
C          2.66777        0.94870        2.58221
C          3.49747       -0.10075        2.89790
C          4.16587       -0.10818        4.10983
C          4.00021        0.93284        5.01379
C          3.16247        1.98621        4.67254
C          2.49669        1.98985        3.46202
H          1.83315        2.79566        3.19960
H          3.03422        2.80306        5.36209
C          4.73770        0.93896        6.30758
H          4.82086       -0.92506        4.36031
H          3.61079       -0.91225        2.19575
H          1.13667       -0.82702       -0.26171
H          0.33813       -0.98785       -2.92413
C         -0.61308        1.39520       -2.70459
C         -1.71191        1.78199       -3.43330
C         -1.56288        2.67620       -4.47726
C         -0.31113        3.18184       -4.80278
C          0.78522        2.78281       -4.05087
C          0.63253        1.88839       -3.00764
H          1.48129        1.58222       -2.41906
H          1.75859        3.18073       -4.28139
C         -0.15476        4.16957       -5.90595
H         -2.42214        2.99267       -5.04350
H         -2.68374        1.39451       -3.17618
C         -2.46871       -0.18621       -1.16518
C         -2.99039       -1.07722       -2.07248
C         -4.33870       -1.38675       -2.03815
C         -5.17064       -0.80745       -1.08973
C         -4.62501        0.09173       -0.18365
C         -3.27823        0.40074       -0.22181
H         -2.86087        1.11222        0.47128
H         -5.26437        0.55689        0.54701
C         -6.62705       -1.11710       -1.06704
H         -4.75271       -2.07941       -2.75073
H         -2.33821       -1.52401       -2.80637
Cl        -1.83715        3.16586       -0.55261
H          0.26941       -7.24402       -1.00116
H         -0.99871       -6.53475        1.38227
H          0.99960       -8.05215        1.14560
H         -0.66815       -4.17888        2.09224
H         -4.77479       -4.36491        0.85163
H         -2.83127       -3.15882       -0.44846
H         -3.75488       -1.70073        4.10079
H         -3.84403       -3.97147        3.15941
H          5.04003        2.06838       -4.53749
H          4.89254        3.73493       -3.98871
H          6.24411        2.74298       -3.43710
H          5.70257        1.43651        6.20089
H          4.17269        1.46214        7.08030
H          4.91988       -0.07657        6.66195
H         -0.27901        5.18737       -5.53379
H          0.83308        4.09645       -6.36306
H         -0.89519        4.00483       -6.68996
H         -7.03288       -1.02961       -0.05812
H         -7.17835       -0.43147       -1.71186
H         -6.81913       -2.13350       -1.41383
