111
-148.55624535
P         -2.77859        1.70527       -0.29359
P          0.19079        0.64335        0.09010
C         -1.81330        2.22649        1.14826
C         -0.50187        1.82031        1.27675
C         -3.86780        3.06279       -0.92142
C         -3.27562        3.73733       -2.13951
C         -2.38442        3.03265        2.11211
H         -3.41523        3.33168        2.01493
C         -1.63554        3.43905        3.20285
H         -2.08061        4.06850        3.95608
C         -0.31955        3.03798        3.32707
H          0.26376        3.35264        4.17677
C          0.24630        2.22249        2.36412
H          1.26729        1.89049        2.45856
Pd        -1.23533        0.81441       -1.75190
Cl        -2.85309        0.67849       -3.29623
Cl         0.40584       -0.14675       -2.94548
C         -5.20087        2.33370       -1.17065
C         -4.04271        0.39589        0.04770
H         -2.29690        4.16918       -1.91735
H         -3.14093        3.02270       -2.95246
H         -3.92366        4.53591       -2.50803
H         -5.21910        1.97951       -2.21069
H         -6.04483        3.03476       -1.08160
H         -3.87999       -0.38474       -0.70769
C         -5.37681        1.12350       -0.20907
C         -3.89920       -0.16897        1.44408
H         -3.97683        3.78182       -0.09972
H         -5.77678        1.47634        0.75146
H         -6.12728        0.41923       -0.59898
H         -2.92409       -0.63845        1.58211
H         -3.99153        0.61981        2.19287
H         -4.66626       -0.91825        1.65295
C         -1.30433       -3.45323        1.40016
C         -0.97108       -3.22752        0.03849
C         -0.49737       -1.97798       -0.31730
C         -0.30141       -0.99745        0.61836
C         -0.49403       -1.25327        1.95046
C         -0.94858       -2.48877        2.38111
O         -2.06903       -4.59098        1.76488
C         -1.12511       -4.27625       -1.07458
H         -0.29408       -1.74384       -1.34776
H         -0.30863       -0.46390        2.65886
C         -1.03474       -2.73184        3.89666
C          4.73828        0.90006       -0.06406
C          3.97818        1.31062       -1.18933
C          2.59662        1.25600       -1.10383
C          1.97676        0.73185       -0.00027
C          2.71107        0.22105        1.03885
C          4.09514        0.26688        1.02939
O          6.13673        1.14487       -0.01775
C          4.62620        1.80398       -2.49318
H          1.98077        1.60635       -1.91338
H          2.18195       -0.22079        1.86549
C          4.87472       -0.33633        2.20829
C         -2.32244       -3.89910       -1.96375
C          0.15591       -4.30138       -1.93767
C         -1.32270       -5.69649       -0.51801
C          0.28321       -2.27530        4.56061
C         -2.20189       -1.91829        4.48062
C         -1.22034       -4.21961        4.24164
C         -3.46552       -4.34787        1.72070
H         -2.44285       -4.61272       -2.77825
H         -3.24803       -3.88351       -1.39152
H         -2.18683       -2.91054       -2.40168
H          1.03340       -4.48306       -1.31787
H          0.10382       -5.09076       -2.68699
H          0.30627       -3.36230       -2.46749
H         -1.33499       -6.43452       -1.31971
H         -0.51880       -5.95466        0.17041
H         -2.26334       -5.78091        0.02101
H          0.44175       -1.20368        4.45156
H          0.27775       -2.49621        5.62767
H          1.13482       -2.78906        4.11545
H         -2.07057       -0.85381        4.28837
H         -3.15079       -2.22031        4.04145
H         -2.27202       -2.05761        5.55906
H         -0.43901       -4.82151        3.77889
H         -1.18154       -4.38101        5.31867
H         -2.17948       -4.59019        3.88794
H         -3.99862       -5.26919        1.95619
H         -3.73540       -3.58151        2.44534
H         -3.75461       -4.00756        0.72757
C          6.48643        2.42081        0.50348
C          5.99036        1.12887       -2.72552
C          3.73849        1.44774       -3.70814
C          4.79232        3.32978       -2.43622
C          6.21137       -0.93578        1.73549
C          5.12585        0.75333        3.26166
C          4.07317       -1.48108        2.86925
H          6.70341        1.39587       -1.94973
H          5.88625        0.04436       -2.72390
H          6.41776        1.42735       -3.68243
H          4.25288        1.67019       -4.64266
H          3.48851        0.38712       -3.70740
H          2.81019        2.01670       -3.71140
H          5.24216        3.70781       -3.35394
H          3.82649        3.81784       -2.30781
H          5.42597        3.62705       -1.60407
H          6.86723       -0.16970        1.32899
H          6.73803       -1.41749        2.55893
H          6.04417       -1.68003        0.95761
H          5.66597        0.35128        4.11846
H          5.71116        1.57184        2.85008
H          4.18347        1.16708        3.62009
H          3.18557       -1.10807        3.37823
H          4.67709       -1.99493        3.61680
H          3.76181       -2.21632        2.12764
H          5.59208        2.96656        0.80677
H          7.14491        2.29486        1.36281
H          7.02236        2.99245       -0.25390
