111
-148.55184314
P         -2.52603        2.13121        0.99694
P          0.03074        0.33409        0.51189
C         -1.49152        1.64043        2.40373
C         -0.34618        0.90955        2.17623
C         -3.21851        3.83046        1.25402
C         -2.46289        4.88761        0.47903
C         -1.83627        1.99094        3.69385
H         -2.74460        2.54188        3.87335
C         -1.02332        1.61768        4.75035
H         -1.29209        1.89171        5.75749
C          0.13034        0.89408        4.51675
H          0.76215        0.60237        5.33948
C          0.46782        0.53434        3.22441
H          1.35387       -0.04796        3.02418
Pd        -1.36403        1.51890       -0.91286
Cl        -2.57802        2.99361       -2.07697
Cl        -0.04283        0.77943       -2.57866
C         -4.69413        3.65364        0.85455
C         -4.09642        1.16144        0.84432
H         -2.86890        5.88468        0.66426
H         -1.40439        4.89609        0.74930
H         -2.52484        4.70476       -0.59348
H         -4.79710        3.86767       -0.21829
H         -5.32349        4.39689        1.36751
H         -4.15526        0.84123       -0.20460
C         -5.18754        2.20693        1.14549
C         -4.09028       -0.03460        1.77143
H         -3.14527        4.02991        2.33051
H         -5.47357        2.12460        2.20299
H         -6.10144        1.98217        0.57507
H         -5.02196       -0.60074        1.70040
H         -3.26455       -0.71054        1.53782
H         -3.97115        0.28056        2.80975
C         -1.05511       -4.06860        0.05450
C         -1.15455       -3.45625        1.33257
C         -0.81806       -2.11756        1.44576
C         -0.47948       -1.37690        0.34338
C         -0.51487       -1.93293       -0.90742
C         -0.83665       -3.26496       -1.09550
O         -1.08479       -5.48201       -0.06291
C         -1.61412       -4.19163        2.60259
H         -0.80114       -1.64142        2.41050
H         -0.27271       -1.30518       -1.74702
C         -0.93876       -3.77839       -2.54101
C          4.38610        0.75750       -0.73503
C          3.85576       -0.52386       -0.43799
C          2.52663       -0.60944       -0.06114
C          1.75830        0.51499        0.08984
C          2.29236        1.76233       -0.09608
C          3.61623        1.92055       -0.47373
O          5.67178        0.87252       -1.32759
C          4.67717       -1.81669       -0.56256
H          2.06318       -1.56713        0.10017
H          1.64968        2.61530        0.03946
C          4.17914        3.34074       -0.63939
C         -0.40539       -4.42022        3.52518
C         -2.66097       -3.33089        3.34397
C         -2.28339       -5.54095        2.28857
C          0.47078       -3.87113       -3.14909
C         -1.62987       -5.14987       -2.62856
C         -1.78492       -2.79074       -3.37532
C          0.20188       -6.06727        0.05095
H         -0.70667       -4.92122        4.44478
H          0.34902       -5.03619        3.03935
H          0.06236       -3.47421        3.79635
H         -2.23889       -2.39053        3.69459
H         -3.50151       -3.10100        2.68991
H         -3.04895       -3.85722        4.21569
H         -2.68691       -5.99904        3.19128
H         -3.09986       -5.40909        1.57946
H         -1.57407       -6.24106        1.85357
H          1.09492       -4.56750       -2.59216
H          0.42711       -4.21175       -4.18319
H          0.96406       -2.89969       -3.13691
H         -1.77815       -5.44967       -3.66571
H         -1.03650       -5.92200       -2.14467
H         -2.60315       -5.12141       -2.13990
H         -1.30383       -1.81808       -3.46295
H         -1.93872       -3.16813       -4.38586
H         -2.76320       -2.64224       -2.91910
H          0.86226       -5.67215       -0.71940
H          0.62949       -5.84335        1.02692
H          0.11716       -7.14785       -0.06598
C          5.65830        0.84956       -2.74957
C          4.16338       -2.88837        0.42688
C          4.54168       -2.36885       -1.98985
C          6.15806       -1.56682       -0.22536
C          3.93763        3.81570       -2.08043
C          3.47680        4.32255        0.32614
C          5.68185        3.38620       -0.30799
H          3.17145       -3.24696        0.15508
H          4.82399       -3.75506        0.43545
H          4.11961       -2.49116        1.44067
H          3.49778       -2.57541       -2.22457
H          4.91079       -1.65823       -2.72514
H          5.10345       -3.29543       -2.10528
H          6.25740       -1.13973        0.77199
H          6.72889       -2.49457       -0.25567
H          6.61482       -0.87658       -0.93012
H          4.31242        4.82843       -2.22630
H          4.43373        3.16710       -2.79818
H          2.87301        3.81211       -2.31325
H          3.95995        5.29912        0.30357
H          2.43322        4.47702        0.05606
H          3.51601        3.95338        1.35065
H          6.26020        2.77968       -1.00024
H          5.86421        3.00989        0.69804
H          6.06482        4.40487       -0.36393
H          4.63730        0.74199       -3.11814
H          6.08887        1.77365       -3.13486
H          6.26445        0.01768       -3.10778
