59
-75.79844750
Cl         1.45580        0.92596        2.34959
P          1.63576       -0.00831       -0.78652
P         -1.60154       -0.11492       -0.82876
C          0.68420        0.57364       -2.25966
H          0.49606        1.64156       -2.13466
H          1.32020        0.46036       -3.14248
C         -0.60661       -0.19251       -2.39276
H         -0.40122       -1.24469       -2.60184
H         -1.22445        0.18063       -3.21510
C          2.26890       -1.71718       -1.11688
H          1.77497       -2.03206       -2.04530
C          3.25448        0.86094       -0.60245
H          3.51991        0.79422        0.45979
C         -2.50573       -1.68124       -0.42133
H         -2.29127       -1.88557        0.63498
C         -3.03085        1.05849       -0.94252
H         -3.17057        1.26492       -2.01055
C          3.78414       -1.52646       -1.35805
H          4.34367       -2.00808       -0.54699
H          4.09477       -2.06103       -2.26817
C          4.18851       -0.02692       -1.44361
H          4.14135        0.30982       -2.48907
H          5.23535        0.11831       -1.13468
C         -3.98361       -1.29336       -0.60153
H         -4.30299       -1.57425       -1.61455
H         -4.61920       -1.87786        0.08099
C         -4.20604        0.22869       -0.39407
H         -4.31233        0.43704        0.67964
H         -5.15227        0.55451       -0.85246
C          1.91494       -2.66843        0.02544
H          2.22363       -3.68766       -0.24625
H          0.82141       -2.71220        0.12078
C          3.20201        2.32054       -1.03611
H          4.22635        2.71300       -1.10301
H          2.80624        2.37470       -2.05842
C         -2.06214       -2.85871       -1.28170
H         -2.28179       -2.63163       -2.33319
H         -0.97012       -2.95673       -1.22799
C         -2.80189        2.35981       -0.18169
H         -3.74234        2.92775       -0.15510
H         -2.57993        2.12236        0.86647
C          2.51969       -2.29069        1.37163
H          3.60802       -2.36086        1.36657
H          2.16157       -2.93864        2.17499
H          2.26947       -1.26620        1.64666
C          2.37500        3.18422       -0.09661
H          1.35652        2.80652       -0.00663
H          2.31490        4.22131       -0.43412
H          2.79810        3.18824        0.90967
C         -2.72016       -4.16953       -0.87755
H         -2.49495       -4.41875        0.16118
H         -2.38445       -5.00488       -1.49634
H         -3.80653       -4.11259       -0.96602
C         -1.69494        3.21644       -0.77064
H         -1.56742        4.15494       -0.22626
H         -0.74078        2.69254       -0.74183
H         -1.89715        3.46401       -1.81440
Cl        -1.68945        0.35767        2.30011
Pd        -0.01247        0.20902        0.80722
