105
-153.06724828
Cl         0.19835        2.74723        2.77446
Pd        -0.18149        1.71812        0.80570
P         -0.74333        0.54929       -1.17375
N          0.37741       -0.72826       -1.63232
C          0.53374       -2.10372       -1.41739
C          0.01434       -2.81232       -0.30177
C          0.37592       -4.16193       -0.10414
C         -0.02559       -4.85373        1.17779
C          0.85572       -6.06453        1.51592
C          0.96346       -6.99697        0.30570
C          1.58106       -6.26905       -0.90033
C          1.16628       -4.82366       -1.04702
C          1.63780       -4.11893       -2.14710
C          1.34749       -2.79053       -2.31709
H          1.74816       -2.25263       -3.15898
H          2.26267       -4.62752       -2.86185
H          2.67475       -6.30568       -0.82765
H          1.54184       -7.89682        0.55835
H          1.85749       -5.71682        1.79775
H         -0.00202       -4.12826        2.00071
C         -0.71947       -2.10407        0.77379
C          0.01796       -1.23544        1.61464
C         -0.63402       -0.61200        2.67796
C         -1.96280       -0.84922        2.91896
C         -2.69889       -1.72062        2.12293
C         -4.14306       -1.97347        2.49502
C         -4.91194       -2.93671        1.56840
C         -3.98695       -3.99063        0.94921
C         -2.85905       -3.29838        0.17399
C         -2.07559       -2.35218        1.04402
H         -2.19575       -4.02983       -0.30067
H         -4.54603       -4.68276        0.30384
H         -5.38921       -2.36583        0.76293
H         -4.66078       -1.00732        2.54592
H         -2.45223       -0.35946        3.74366
H         -0.07843        0.06951        3.29724
N          1.37148       -1.00102        1.35050
P          1.88606        0.66710        1.10840
C          2.68980        0.87811       -0.47772
C          2.36654        1.96931       -1.24991
C          2.84001        2.05641       -2.54529
C          3.64335        1.05586       -3.07285
C          3.97543       -0.02751       -2.27081
C          3.50413       -0.11370       -0.97302
H          3.73946       -0.96806       -0.35848
H          4.59243       -0.81230       -2.67416
C          4.09877        1.12333       -4.48879
H          2.56604        2.89383       -3.16419
H          1.72169        2.73711       -0.85259
C          2.84880        1.33021        2.45705
C          2.91623        0.61945        3.63043
C          3.63098        1.12801        4.70036
C          4.28314        2.34964        4.59513
C          4.19216        3.05608        3.40264
C          3.47704        2.54581        2.33400
H          3.39871        3.09285        1.40779
H          4.67979        4.01218        3.31810
C          5.02666        2.91360        5.75556
H          3.68199        0.58028        5.62579
H          2.40722       -0.32867        3.70111
H          1.76690       -1.52748        0.58434
H          1.19841       -0.22442       -1.94730
C         -0.60537        1.76046       -2.49750
C         -0.91589        3.08652       -2.31488
C         -0.76140        3.98381       -3.35365
C         -0.30653        3.55720       -4.59378
C         -0.00539        2.21337       -4.76631
C         -0.15975        1.31935       -3.72184
H          0.07872        0.27632       -3.85414
H          0.35806        1.87225       -5.72057
C         -0.10574        4.52801       -5.70483
H         -0.99349        5.02482       -3.20667
H         -1.28649        3.41404       -1.35941
C         -2.41527       -0.08123       -1.28767
C         -2.67426       -0.94396       -2.32706
C         -3.96307       -1.40288       -2.53984
C         -4.99925       -1.00337       -1.70724
C         -4.71980       -0.12390       -0.66930
C         -3.43430        0.34125       -0.46833
H         -3.22822        1.06162        0.30369
H         -5.51785        0.20596       -0.02641
C         -6.37979       -1.51439       -1.93181
H         -4.16992       -2.08070       -3.35027
H         -1.86373       -1.25360       -2.96835
Cl        -2.07783        2.90334        0.58169
H          1.33366       -6.79872       -1.82915
H          0.46984       -6.60155        2.39400
H         -0.03822       -7.35799        0.04003
H         -1.06858       -5.17868        1.10108
H         -3.55439       -4.60798        1.74625
H         -3.28971       -2.72900       -0.65350
H         -4.16206       -2.36479        3.51939
H         -5.73901       -3.41804        2.10875
H          5.03671        0.58404       -4.62810
H          3.35486        0.68375       -5.15480
H          4.26067        2.15609       -4.80074
H          5.84483        3.55516        5.42533
H          4.36511        3.50933        6.38591
H          5.45533        2.12150        6.37110
H         -0.26595        4.05491       -6.67466
H         -0.80048        5.36541       -5.62669
H          0.90853        4.92931       -5.68936
H         -7.07591       -1.12235       -1.18909
H         -6.74549       -1.22381       -2.91760
H         -6.40530       -2.60339       -1.87039
