171
-217.83690038
P         -1.45947        0.23039       -0.41889
P          1.63590       -0.74881        0.34485
C         -0.41843        1.02753       -1.66094
C          1.01665       -1.75039       -1.03047
C          0.42924        0.23284       -2.42206
C          1.25932        0.83757       -3.38564
C          1.18057        2.20715       -3.57623
C          0.33694        2.98306       -2.80932
C         -0.45585        2.38814       -1.84824
C          1.04327       -3.10637       -0.80366
C          0.53333       -3.98131       -1.74357
C         -0.02977       -3.48472       -2.89935
C         -0.08897       -2.12217       -3.13764
C          0.46498       -1.23348       -2.19724
Cl         0.64966       -1.00642        3.40986
Cl        -2.39557       -1.54779        2.23077
C         -0.76293       -1.63490       -4.37252
C          2.20532        0.02601       -4.20056
H          0.30150        4.05059       -2.95361
H         -1.09606        2.99399       -1.23229
H          1.46039       -3.47836        0.12067
H          0.56467       -5.04409       -1.56736
H          1.79225        2.66483       -4.33488
H         -0.44174       -4.15883       -3.63125
C         -4.22505       -2.66866       -2.53986
C         -3.48034       -3.12755       -1.46074
C         -2.64529       -2.22437       -0.81678
C         -2.56368       -0.92150       -1.23947
C         -3.30113       -0.48769       -2.31320
C         -4.15237       -1.35445       -2.98686
H         -4.88358       -3.35741       -3.03458
H         -2.05447       -2.53206        0.02672
H         -3.20720        0.53442       -2.63566
C         -4.06267        3.39726        1.58085
C         -3.38067        2.49808        2.38963
C         -2.58882        1.54173        1.77176
C         -2.48903        1.47452        0.40257
C         -3.19868        2.35599       -0.37782
C         -3.98152        3.35037        0.19560
H         -4.67994        4.15050        2.03298
H         -2.06440        0.82929        2.38014
H         -3.13140        2.27213       -1.44760
C          5.57113       -2.58671        1.63818
C          4.65915       -2.22812        2.62426
C          3.44847       -1.68649        2.21872
C          3.16464       -1.51922        0.88837
C          4.07403       -1.88318       -0.07432
C          5.30234       -2.42532        0.28417
H          6.51975       -3.00052        1.92424
H          2.71130       -1.39709        2.94511
H          3.81363       -1.74049       -1.10945
C          2.77755        3.61852       -0.08555
C          3.48893        2.65459       -0.78819
C          3.08069        1.33198       -0.66877
C          2.00829        0.99910        0.12200
C          1.32529        1.96644        0.82265
C          1.69908        3.30111        0.73182
H          3.09574        4.64102       -0.16241
H          3.61039        0.54558       -1.17700
H          0.51220        1.67997        1.46584
Pd        -0.42650       -0.82468        1.44437
C         -3.24801       -5.53193       -2.14534
C         -3.61867       -4.58273       -0.99159
C         -5.07345       -4.83593       -0.55635
C         -2.69309       -4.88385        0.20428
H         -3.33057       -6.57337       -1.83492
H         -3.90188       -5.38752       -3.00449
H         -2.22332       -5.35881       -2.47140
H         -5.35710       -4.15636        0.24709
H         -5.76617       -4.68404       -1.38327
H         -5.20135       -5.85670       -0.19661
H         -1.64822       -4.71924       -0.05674
H         -2.93833       -4.25352        1.05881
H         -2.79457       -5.92169        0.52082
C         -5.77871       -1.95495       -4.85142
C         -5.01661       -0.82103       -4.13896
C         -4.12812       -0.11094       -5.17873
C         -6.03828        0.17833       -3.56711
H         -6.35701       -1.56512       -5.68905
H         -5.08932       -2.70257       -5.24361
H         -6.47589       -2.44779       -4.17423
H         -4.72792        0.27208       -6.00419
H         -3.59394        0.73160       -4.74168
H         -3.39201       -0.79880       -5.59284
H         -6.67810       -0.30489       -2.82898
H         -5.53777        1.01271       -3.07759
H         -6.67435        0.58251       -4.35438
C         -4.06678        1.15966        4.39278
C         -3.48515        2.50582        3.92128
C         -4.39832        3.63955        4.42494
C         -2.08389        2.70237        4.52774
H         -5.04951        0.99026        3.95352
H         -3.42516        0.32805        4.10378
H         -4.17201        1.13783        5.47719
H         -5.41122        3.52863        4.03834
H         -4.45855        3.63263        5.51319
H         -4.01619        4.61425        4.12188
H         -1.40958        1.89756        4.23747
H         -1.65081        3.64415        4.19269
H         -2.12900        2.72088        5.61639
C         -6.25407        4.19404       -0.43589
C         -4.74184        4.38024       -0.65184
C         -4.43553        4.21999       -2.15431
C         -4.32339        5.80027       -0.22544
H         -6.56195        3.18815       -0.72113
H         -6.52455        4.34274        0.60894
H         -6.82449        4.90459       -1.03384
H         -4.75157        3.24337       -2.51887
H         -4.96267        4.97382       -2.73891
H         -3.36967        4.33467       -2.35140
H         -4.82610        6.55333       -0.83207
H         -4.57333        5.99358        0.81692
H         -3.24823        5.93546       -0.34266
C          3.86929       -3.32220        4.73705
C          4.93951       -2.39967        4.12386
C          4.88733       -1.02122        4.80871
C          6.32594       -3.02139        4.37846
H          2.87178       -2.89777        4.62961
H          3.87308       -4.29525        4.24640
H          4.05150       -3.47867        5.80004
H          5.09996       -1.10635        5.87418
H          5.62132       -0.34550        4.37012
H          3.90485       -0.56305        4.70081
H          6.40369       -4.00730        3.92051
H          7.11877       -2.38972        3.97823
H          6.50641       -3.13903        5.44691
C          7.62145       -1.97231       -0.55034
C          6.35386       -2.82005       -0.76239
C          5.84333       -2.58364       -2.19807
C          6.69329       -4.31384       -0.60699
H          8.05038       -2.14208        0.43657
H          8.38245       -2.21584       -1.29154
H          7.39286       -0.91020       -0.63730
H          5.61369       -1.53156       -2.36578
H          6.59665       -2.87598       -2.92946
H          4.94586       -3.16935       -2.39665
H          7.42194       -4.62795       -1.35416
H          7.11254       -4.52567        0.37584
H          5.79961       -4.92565       -0.72879
C          4.34046        4.09969       -2.66007
C          4.73055        3.05703       -1.59715
C          5.36241        1.84437       -2.30824
C          5.77827        3.65854       -0.64231
H          3.92729        4.99817       -2.20350
H          5.20650        4.39528       -3.25205
H          3.59197        3.69522       -3.33930
H          5.69294        1.09595       -1.58828
H          4.65358        1.37772       -2.99061
H          6.23239        2.14669       -2.89099
H          6.05198        2.93955        0.12974
H          6.68375        3.93666       -1.18137
H          5.39659        4.55107       -0.14782
C         -0.50984        4.40850        1.19881
C          0.97738        4.35553        1.58548
C          1.57644        5.76151        1.38860
C          1.11525        3.97192        3.07054
H         -0.62822        4.71424        0.16002
H         -0.97885        3.43505        1.32072
H         -1.05251        5.11997        1.82097
H          2.62790        5.78423        1.67439
H          1.49148        6.08203        0.35036
H          1.05234        6.49356        2.00300
H          0.62724        4.70610        3.71117
H          0.66689        2.99992        3.27104
H          2.16520        3.91864        3.35754
H         -1.72904       -2.12582       -4.49913
H          1.71429       -0.36880       -5.09059
H         -0.16141       -1.84818       -5.25718
H         -0.94261       -0.55976       -4.33407
H          2.59549       -0.81631       -3.62692
H          3.05615        0.62368       -4.53035
