171
-217.84141776
P         -1.62491        0.85691       -0.20533
P          1.48643       -0.42131       -0.26723
C         -0.76918        1.71495       -1.54392
C          0.64710       -1.21249       -1.63979
C         -0.00560        1.04525       -2.49744
C          0.77855        1.80401       -3.38783
C          0.73412        3.18624       -3.32843
C         -0.05520        3.83196       -2.40264
C         -0.79470        3.08942       -1.50418
C          0.69238       -2.58072       -1.74227
C          0.06156       -3.21927       -2.79158
C         -0.61137       -2.47418       -3.73689
C         -0.66808       -1.09213       -3.65163
C         -0.01255       -0.44102       -2.58806
Cl         1.97906        1.19518        2.50470
Cl        -1.18076        1.12117        3.04682
C         -1.39239       -0.31504       -4.69486
C          1.67220        1.15996       -4.38805
H         -0.08234        4.90892       -2.36761
H         -1.39478        3.59003       -0.76275
H          1.23274       -3.15000       -1.00405
H          0.09643       -4.29349       -2.87143
H          1.33238        3.75744       -4.01837
H         -1.09646       -2.96771       -4.56175
C         -3.42915       -3.20033       -1.06973
C         -3.80391       -2.11725       -1.85520
C         -3.20583       -0.88990       -1.59686
C         -2.29082       -0.76411       -0.58063
C         -1.94206       -1.84240        0.19667
C         -2.50357       -3.09053       -0.03855
H         -3.88831       -4.15124       -1.26364
H         -3.45502       -0.01809       -2.17789
H         -1.23521       -1.70828        0.99706
C         -4.84224        3.42105        1.71454
C         -5.21881        2.29769        0.98802
C         -4.21455        1.53884        0.40295
C         -2.89417        1.88831        0.54389
C         -2.54158        2.99836        1.27035
C         -3.51175        3.78881        1.87314
H         -5.59806        4.02414        2.18140
H         -4.46680        0.65628       -0.15755
H         -1.49597        3.22124        1.39665
C          4.86492        2.11173       -1.91420
C          4.71902        0.80787       -2.37602
C          3.66978        0.05326       -1.86526
C          2.83249        0.57387       -0.90841
C          2.99744        1.85931       -0.46026
C          4.01305        2.66053       -0.96224
H          5.66519        2.71288       -2.30033
H          3.49624       -0.94510       -2.22910
H          2.33424        2.23897        0.29723
C          3.18587       -3.69029        2.42449
C          3.73479       -3.47552        1.16697
C          3.20653       -2.44954        0.39446
C          2.14836       -1.69629        0.84154
C          1.61183       -1.93987        2.08451
C          2.13504       -2.92467        2.91054
H          3.58498       -4.46710        3.04905
H          3.62638       -2.24039       -0.57297
H          0.78328       -1.35008        2.42748
Pd         0.15155        0.71810        1.28595
C         -4.42872       -3.34282       -3.95549
C         -4.88808       -2.29269       -2.92826
C         -5.17571       -0.97345       -3.67097
C         -6.19202       -2.75964       -2.25422
H         -3.50339       -3.03035       -4.43726
H         -4.25079       -4.30852       -3.48397
H         -5.18082       -3.48406       -4.73151
H         -5.52877       -0.20563       -2.98364
H         -4.28434       -0.60130       -4.17333
H         -5.94579       -1.11620       -4.42895
H         -6.05933       -3.71891       -1.75539
H         -6.51871       -2.03639       -1.50707
H         -6.99117       -2.87258       -2.98661
C         -2.86652       -5.56394        0.45345
C         -2.13084       -4.27454        0.86609
C         -2.51755       -3.93529        2.31711
C         -0.61681       -4.53467        0.77799
H         -3.94690       -5.44040        0.52588
H         -2.61694       -5.84720       -0.56899
H         -2.58598       -6.39303        1.10305
H         -1.98937       -3.05060        2.66875
H         -3.58628       -3.73614        2.39335
H         -2.27894       -4.75912        2.98933
H         -0.32844       -4.77615       -0.24420
H         -0.04764       -3.66208        1.09257
H         -0.32505       -5.37088        1.41270
C         -7.64480        2.78983        1.58520
C         -6.68198        1.86494        0.81646
C         -6.85375        0.42975        1.35035
C         -7.04894        1.90683       -0.67799
H         -7.42261        2.78659        2.65218
H         -7.57983        3.81482        1.22067
H         -8.67685        2.46168        1.46187
H         -6.23628       -0.27714        0.79732
H         -6.56719        0.37332        2.40026
H         -7.88988        0.10291        1.26452
H         -6.41949        1.23219       -1.25643
H         -8.08642        1.61188       -0.83433
H         -6.91841        2.91181       -1.07884
C         -1.62393        5.24586        2.76244
C         -3.14811        5.01607        2.72054
C         -3.64605        4.79997        4.16123
C         -3.81377        6.26726        2.11940
H         -1.22338        5.40798        1.76186
H         -1.38129        6.12351        3.36129
H         -1.11115        4.39281        3.20660
H         -4.72861        4.68290        4.19291
H         -3.19979        3.90276        4.58985
H         -3.38278        5.64545        4.79650
H         -3.48796        6.41913        1.09050
H         -4.89932        6.17662        2.11681
H         -3.55552        7.15887        2.69051
C          6.80013        1.15174       -3.80558
C          5.69576        0.16703       -3.37563
C          4.93709       -0.29075       -4.63476
C          6.36184       -1.05223       -2.71121
H          7.48344        0.68121       -4.51249
H          6.37533        2.02933       -4.29266
H          7.38814        1.48064       -2.94893
H          4.49127        0.55933       -5.14928
H          5.61054       -0.78542       -5.33451
H          4.14235       -0.99331       -4.38699
H          5.62401       -1.81090       -2.45363
H          7.09136       -1.51145       -3.37805
H          6.87746       -0.75851       -1.79713
C          5.32598        4.83723       -1.11269
C          4.16091        4.09362       -0.43253
C          4.42655        4.04566        1.08381
C          2.85991        4.87148       -0.70494
H          5.17475        4.90018       -2.19021
H          5.41001        5.85480       -0.73128
H          6.27512        4.33585       -0.92437
H          5.33166        3.47785        1.29790
H          4.55206        5.04890        1.49045
H          3.60249        3.57119        1.61538
H          2.00861        4.40791       -0.20762
H          2.93600        5.89800       -0.34705
H          2.64787        4.90127       -1.77329
C          6.14742       -3.39134        0.51440
C          4.90999       -4.29958        0.62294
C          4.54738       -4.85501       -0.76842
C          5.24829       -5.48806        1.54352
H          6.42591       -3.00179        1.49336
H          7.00032       -3.93707        0.11129
H          5.95303       -2.54079       -0.13711
H          3.64482       -5.46375       -0.71598
H          4.36968       -4.05462       -1.48538
H          5.35157       -5.47689       -1.16125
H          6.05839       -6.08399        1.12323
H          5.57034       -5.14594        2.52676
H          4.38588       -6.14252        1.66961
C          2.75951       -3.04853        5.33756
C          1.59961       -3.16375        4.33026
C          0.97926       -4.56903        4.41147
C          0.52668       -2.12530        4.71650
H          3.23315       -2.06960        5.26605
H          2.40270       -3.17700        6.35930
H          3.52241       -3.80427        5.15556
H          0.59506       -4.76889        5.41157
H          0.15316       -4.66596        3.70865
H          1.71287       -5.33867        4.17394
H          0.17844       -2.28911        5.73603
H          0.92469       -1.11211        4.66171
H         -0.34036       -2.18916        4.06089
H         -0.71431       -0.00449       -5.49044
H          1.29929        1.31116       -5.40201
H         -1.84922        0.58092       -4.27171
H         -2.18515       -0.90954       -5.15056
H          1.76241        0.08690       -4.21579
H          2.67271        1.59033       -4.33203
