111
-148.55614484
P         -2.55432        2.02899        0.84868
P          0.14659        0.41480        0.50565
C         -1.46352        1.78763        2.27695
C         -0.26932        1.11941        2.11277
C         -3.39128        3.67899        0.88229
C         -2.78761        4.62433       -0.13330
C         -1.82411        2.25536        3.52444
H         -2.76792        2.75940        3.65259
C         -0.97943        2.06030        4.60368
H         -1.25974        2.42610        5.57798
C          0.21990        1.39521        4.43479
H          0.87592        1.24099        5.27563
C          0.57390        0.91846        3.18544
H          1.49886        0.38277        3.03894
Pd        -1.29943        1.43030       -0.98655
Cl        -2.93849        2.14594       -2.34101
Cl         0.02400        0.79760       -2.69199
C         -4.86712        3.31864        0.62843
C         -4.02745        0.90939        0.84558
H         -2.88482        4.22238       -1.14277
H         -3.28380        5.59754       -0.11739
H         -1.72300        4.78229        0.05510
H         -5.06810        3.39678       -0.44897
H         -5.53022        4.05533        1.10701
H         -4.09528        0.49950       -0.17116
C         -5.19602        1.87680        1.11129
C         -3.88082       -0.20070        1.86363
H         -3.26421        4.07343        1.89835
H         -5.40552        1.89050        2.18976
H         -6.11659        1.50422        0.63676
H         -3.01214       -0.82488        1.64430
H         -3.74547        0.20855        2.86649
H         -4.76299       -0.84478        1.88308
C         -1.21017       -3.92826        0.26213
C         -1.05613       -3.31455        1.53207
C         -0.61998       -2.00091        1.57874
C         -0.41200       -1.28599        0.42884
C         -0.66359       -1.84257       -0.79690
C         -1.10203       -3.14852       -0.91731
O         -1.43490       -5.32779        0.17333
C         -1.32926       -4.06248        2.84636
H         -0.43245       -1.51590        2.52025
H         -0.50393       -1.23253       -1.66873
C         -1.43000       -3.69323       -2.31592
C          4.51569        0.81471       -0.71264
C          3.80280       -0.37610       -1.00293
C          2.47598       -0.45356       -0.61669
C          1.87912        0.55994        0.08593
C          2.59114        1.67093        0.45548
C          3.92620        1.80902        0.11042
O          5.80050        1.02962       -1.27845
C          4.42238       -1.55717       -1.76583
H          1.87977       -1.30940       -0.87944
H          2.08304        2.43784        1.01428
C          4.70330        3.03931        0.60484
C         -1.76310       -3.07959        3.95783
C         -2.47294       -5.07859        2.67447
C         -0.04843       -4.77890        3.29967
C         -1.97398       -2.56441       -3.22253
C         -0.15185       -4.26087       -2.95168
C         -2.52013       -4.77796       -2.25025
C         -0.24417       -6.09774        0.06496
H         -2.07113       -3.62003        4.85261
H         -0.95068       -2.41587        4.24999
H         -2.60469       -2.46991        3.63069
H         -2.71077       -5.56482        3.62024
H         -3.37343       -4.58466        2.31082
H         -2.20810       -5.85638        1.96233
H         -0.20752       -5.30513        4.24055
H          0.27916       -5.50560        2.56025
H          0.76169       -4.06456        3.44471
H         -1.20638       -1.82924       -3.45900
H         -2.33211       -2.96713       -4.16956
H         -2.80492       -2.04807       -2.74255
H          0.60739       -3.48503       -3.04725
H          0.26762       -5.06157       -2.34691
H         -0.35367       -4.65863       -3.94586
H         -3.41495       -4.39283       -1.76242
H         -2.79684       -5.11653       -3.24838
H         -2.18354       -5.64657       -1.69021
H          0.63333       -5.45264        0.12570
H         -0.21187       -6.83286        0.86905
H         -0.23657       -6.63165       -0.88503
C          5.77183        1.67922       -2.54327
C          5.93193       -1.67124       -1.48740
C          3.78072       -2.89147       -1.31920
C          4.17129       -1.37213       -3.27016
C          4.15390        3.51827        1.96807
C          6.19235        2.70852        0.81434
C          4.55283        4.17950       -0.41343
H          6.35612       -2.54627       -1.97922
H          6.46974       -0.79848       -1.84876
H          6.11899       -1.75911       -0.41771
H          4.30277       -3.73922       -1.76233
H          3.82563       -2.99975       -0.23584
H          2.73888       -2.96286       -1.62735
H          4.62277       -0.45240       -3.63456
H          4.58728       -2.20175       -3.84116
H          3.10270       -1.32033       -3.47807
H          4.12890        2.69836        2.68545
H          4.78172        4.30663        2.38275
H          3.14813        3.92568        1.87760
H          6.67491        2.44004       -0.12209
H          6.72903        3.56184        1.22823
H          6.30626        1.87041        1.50105
H          3.50324        4.43982       -0.54800
H          4.94993        3.89527       -1.38492
H          5.08255        5.07203       -0.08142
H          6.35088        2.60124       -2.49377
H          6.22253        1.03409       -3.29720
H          4.74447        1.90899       -2.82887
