75
-122.81221590
P          1.92174       -0.52011       -0.16552
C          3.37106       -1.19847       -1.00363
C          4.31058       -1.85156       -0.23701
C          5.44213       -2.38151       -0.83050
C          5.62935       -2.25118       -2.19193
C          4.69115       -1.58869       -2.95737
C          3.56437       -1.06023       -2.35809
H          2.84226       -0.51614       -2.94049
H          4.83942       -1.47755       -4.01900
H          6.51016       -2.66337       -2.65669
H          6.17511       -2.89512       -0.23031
H          4.15381       -1.94610        0.82571
C          1.63789       -1.57921        1.25625
C          1.92258       -1.13071        2.52558
C          1.81763       -1.99624        3.59879
C          1.43366       -3.30624        3.39021
C          1.15030       -3.75156        2.11414
C          1.25696       -2.88400        1.04184
H          1.06051       -3.22103        0.03594
H          0.84743       -4.77293        1.95245
H          1.34771       -3.98087        4.22628
H          2.03440       -1.64783        4.59514
H          2.22955       -0.10750        2.66960
C          2.26797        1.16813        0.33920
C          3.42418        1.82702       -0.00678
C          3.58760        3.17087        0.30057
C          2.55344        3.83716        0.95719
C          1.38542        3.19000        1.29573
C          1.24254        1.82458        1.00231
O          0.07164        1.12397        1.33357
C         -1.13807        1.78526        1.06758
C         -1.29737        3.15298        1.34100
C         -2.48834        3.77010        1.02934
C         -3.53285        3.06648        0.43098
C         -3.36266        1.71438        0.16920
C         -2.18464        1.08150        0.49028
P         -1.81260       -0.64145        0.10695
C         -1.75690       -1.57364        1.64844
C         -1.39629       -0.95852        2.82522
C         -1.44419       -1.65942        4.01559
C         -1.84714       -2.97984        4.01909
C         -2.19863       -3.59895        2.83604
C         -2.15560       -2.89125        1.64826
H         -2.44376       -3.35784        0.71983
H         -2.51018       -4.63049        2.83739
H         -1.88042       -3.52992        4.94531
H         -1.15846       -1.17771        4.93618
H         -1.05970        0.06398        2.80385
C         -3.12152       -1.38077       -0.88587
C         -4.40638       -1.37503       -0.39189
C         -5.42722       -1.95933       -1.11966
C         -5.15146       -2.55538       -2.33395
C         -3.85839       -2.57484       -2.81724
C         -2.84010       -1.99036       -2.08692
H         -1.82634       -2.00629       -2.45278
H         -3.64171       -3.04383       -3.76296
H         -5.94580       -3.00981       -2.90333
H         -6.43455       -1.95184       -0.73692
H         -4.60294       -0.92853        0.57033
Pd        -0.06299       -0.06391       -1.39868
Cl        -1.73429        0.85967       -2.61561
Cl         1.35713        0.97940       -2.81066
H         -4.14877        1.16398       -0.31557
C         -4.81491        3.74257        0.09751
H         -5.22528        3.36166       -0.83865
H         -4.67623        4.81848       -0.01576
H         -5.55482        3.57868        0.88193
H         -2.60589        4.81745        1.24461
S          0.04566        4.04531        2.08173
H          2.65987        4.88080        1.19526
C          4.84645        3.88034       -0.05141
H          4.19649        1.29856       -0.53848
H          4.66630        4.94343       -0.21610
H          5.58256        3.78261        0.74748
H          5.28351        3.47384       -0.96443
