111
-148.55174515
P         -2.54981        2.11620        0.72039
P          0.14444        0.45038        0.48082
C         -1.48866        1.88375        2.17711
C         -0.30243        1.19242        2.05897
C         -3.46494        3.72300        0.83468
C         -3.28965        4.55422       -0.41676
C         -1.87013        2.38318        3.40650
H         -2.80716        2.90654        3.50222
C         -1.05634        2.19625        4.51063
H         -1.35449        2.58706        5.46981
C          0.13470        1.50733        4.38614
H          0.76711        1.35970        5.24605
C          0.51057        0.99899        3.15592
H          1.42937        0.44466        3.04319
Pd        -1.23866        1.45412       -1.07024
Cl        -2.87087        2.18489       -2.42427
Cl         0.09554        0.77468       -2.74593
C         -4.91913        3.27347        1.08856
C         -3.96787        0.92804        0.66765
H         -3.79634        5.51856       -0.33291
H         -2.23383        4.74224       -0.62505
H         -3.70930        4.03857       -1.28145
H         -5.61158        4.00671        0.64979
H         -5.12965        3.27755        2.16816
H         -3.82923        0.30712       -0.22830
C         -5.19269        1.85343        0.51747
C         -3.99161        0.06411        1.90965
H         -3.05710        4.25909        1.70204
H         -6.06149        1.39653        1.01337
H         -5.46736        1.93709       -0.54441
H         -3.06343       -0.50211        2.01316
H         -4.10303        0.67906        2.80466
H         -4.82104       -0.64686        1.88937
C         -1.22825       -3.88920        0.26562
C         -1.12374       -3.25453        1.53040
C         -0.68978       -1.93981        1.57198
C         -0.43892       -1.24342        0.41916
C         -0.64541       -1.81985       -0.80584
C         -1.07597       -3.12876       -0.92136
O         -1.44554       -5.29067        0.18901
C         -1.43649       -3.98355        2.84661
H         -0.53110       -1.44164        2.51189
H         -0.45078       -1.22475       -1.68097
C         -1.33716       -3.70175       -2.32256
C          4.56128        0.71149       -0.60554
C          3.82670       -0.47195       -0.88026
C          2.48556       -0.50060       -0.54002
C          1.89144        0.54946        0.10929
C          2.62278        1.64821        0.47782
C          3.97285        1.74061        0.17800
O          5.84664        0.89641       -1.17635
C          4.42306       -1.72902       -1.53576
H          1.88047       -1.35262       -0.79689
H          2.12271        2.44404        1.00344
C          4.75129        2.94718        0.73025
C         -0.16177       -4.66785        3.36277
C         -1.93117       -2.98912        3.92156
C         -2.55502       -5.02321        2.65095
C         -2.43622       -4.77875       -2.28716
C         -1.82685       -2.59055       -3.28039
C         -0.03236       -4.29036       -2.88059
C         -0.24965       -6.05937        0.14832
H          0.21152       -5.39663        2.64739
H          0.62710       -3.93525        3.53191
H         -0.34968       -5.18530        4.30320
H         -2.25746       -3.51888        4.81627
H         -1.14569       -2.29989        4.22773
H         -2.77532       -2.40751        3.55304
H         -2.82268       -5.49376        3.59669
H         -3.44828       -4.55297        2.24104
H         -2.24913       -5.81105        1.96703
H         -3.35208       -4.37749       -1.85450
H         -2.66415       -5.13927       -3.28992
H         -2.13387       -5.63563       -1.69057
H         -2.14122       -3.01265       -4.23450
H         -2.67616       -2.05734       -2.85404
H         -1.04230       -1.86674       -3.49545
H         -0.18345       -4.69706       -3.88014
H          0.74017       -3.52423       -2.94138
H          0.34387       -5.08895       -2.24559
H         -0.23853       -6.76112        0.98217
H         -0.21274       -6.63173       -0.77837
H          0.62374       -5.40867        0.20865
C          5.79768        1.51742       -2.45011
C          5.96112       -1.72750       -1.51091
C          3.95955       -2.98411       -0.76163
C          3.92941       -1.82743       -2.98889
C          4.36428        4.20981       -0.05714
C          4.39332        3.15050        2.21947
C          6.27494        2.74393        0.66007
H          6.36117       -2.66569       -1.89473
H          6.36462       -0.92377       -2.12211
H          6.32880       -1.59098       -0.49452
H          4.43699       -3.88114       -1.15516
H          4.21746       -2.90182        0.29382
H          2.88350       -3.13332       -0.83514
H          4.26101       -0.97360       -3.57625
H          4.30518       -2.73110       -3.46800
H          2.84090       -1.85329       -3.02881
H          3.29351        4.39887        0.01201
H          4.88540        5.08511        0.32980
H          4.61543        4.10896       -1.11117
H          4.98915        3.95161        2.65618
H          3.34613        3.41675        2.35249
H          4.58472        2.24101        2.78827
H          6.61951        2.69359       -0.37001
H          6.56202        1.81624        1.15386
H          6.80356        3.56490        1.14397
H          5.35241        2.50730       -2.36682
H          6.80986        1.60942       -2.84454
H          5.19700        0.92035       -3.13409
