111
-148.55292213
P         -1.60914        2.72201        0.94979
P         -0.47960       -0.18762        0.45623
C         -1.24199        1.64358        2.36384
C         -0.82210        0.34880        2.14369
C         -0.40490        4.12522        0.89715
C          0.45562        4.04764       -0.34622
C         -1.34521        2.12058        3.65510
H         -1.63050        3.14616        3.82218
C         -1.05567        1.28891        4.72309
H         -1.14035        1.66046        5.73127
C         -0.65152       -0.01324        4.49897
H         -0.42027       -0.65861        5.33037
C         -0.52352       -0.48150        3.20377
H         -0.17296       -1.48282        3.00958
Pd        -1.69937        1.28096       -0.86001
Cl        -3.19607        2.62043       -1.84502
Cl        -1.49499       -0.24502       -2.50033
C         -1.30438        5.37573        0.96798
C         -3.19136        3.66556        1.14827
H         -0.16395        4.06339       -1.24523
H          1.14996        4.88907       -0.40497
H          1.04159        3.12669       -0.37018
H         -1.43634        5.77110       -0.04846
H         -0.80264        6.17699        1.53115
H         -3.63099        3.72628        0.14451
C         -2.69883        5.05836        1.57959
C         -4.16066        2.99875        2.10088
H          0.20438        4.03538        1.80579
H         -2.63934        5.09227        2.67598
H         -3.43523        5.82773        1.30102
H         -4.39818        1.98341        1.77545
H         -3.74400        2.93056        3.10589
H         -5.09588        3.55854        2.17298
C         -0.59164       -4.71233       -0.03196
C         -1.72204       -3.94239       -0.40923
C         -1.67861       -2.57142       -0.21453
C         -0.54395       -1.96243        0.25215
C          0.58801       -2.68894        0.51585
C          0.61026       -4.06364        0.34986
O         -0.67162       -6.13025       -0.00756
C         -2.98355       -4.57156       -1.02155
H         -2.53085       -1.95369       -0.43928
H          1.46348       -2.15976        0.85196
C          1.92211       -4.82522        0.59610
C          3.65169        1.34525       -0.70209
C          3.21561        1.44489        0.64398
C          1.96782        0.94116        0.96869
C          1.14608        0.41822        0.00554
C          1.51984        0.41683       -1.31155
C          2.74989        0.91141       -1.70711
O          4.99826        1.65066       -1.03465
C          4.08320        2.06942        1.74731
H          1.61899        0.95059        1.98600
H          0.81566        0.04030       -2.03235
C          3.08214        0.96570       -3.20611
C         -3.96453       -4.94343        0.10021
C         -3.67861       -3.57454       -1.97726
C         -2.63257       -5.81807       -1.85432
C          3.14146       -3.92764        0.28123
C          1.99392       -5.25124        2.07012
C          2.02537       -6.05915       -0.31858
C         -1.11498       -6.66434        1.23342
H         -4.87467       -5.38306       -0.30701
H         -3.52321       -5.66103        0.78776
H         -4.24381       -4.06136        0.67595
H         -4.10976       -2.73238       -1.43832
H         -2.97325       -3.18575       -2.71128
H         -4.49198       -4.05833       -2.51745
H         -3.51707       -6.22410       -2.34446
H         -1.90130       -5.57159       -2.62339
H         -2.21093       -6.60444       -1.23320
H          3.06120       -3.50070       -0.71825
H          3.23767       -3.11150        0.99587
H          4.06654       -4.50190        0.32647
H          2.92079       -5.78544        2.27753
H          1.95148       -4.38126        2.72510
H          1.16434       -5.90344        2.33248
H          2.98335       -6.56264       -0.19117
H          1.24270       -6.78139       -0.09986
H          1.93026       -5.76998       -1.36467
H         -2.02632       -7.24157        1.07840
H         -0.35370       -7.33200        1.63652
H         -1.30925       -5.86159        1.94583
C          5.87227        0.52975       -0.99369
C          4.98391        0.98652        2.35982
C          4.93951        3.21988        1.18794
C          3.20107        2.66734        2.86703
C          1.79902        1.19676       -4.03766
C          4.03501        2.13246       -3.52314
C          3.71290       -0.36782       -3.63423
H          4.38438        0.17803        2.77771
H          5.64573        0.55570        1.61251
H          5.60094        1.39756        3.15844
H          5.64797        2.86134        0.44509
H          4.30913        3.97149        0.71372
H          5.50931        3.70530        1.97985
H          3.80884        3.21484        3.58702
H          2.46821        3.35973        2.45453
H          2.67045        1.89380        3.42029
H          1.13234        0.33669       -4.00069
H          1.25376        2.06782       -3.67508
H          2.04247        1.36681       -5.08607
H          3.61144        3.07658       -3.18211
H          4.99747        2.00362       -3.03464
H          4.21727        2.20964       -4.59472
H          4.62938       -0.56540       -3.08318
H          3.95262       -0.36312       -4.69719
H          3.02877       -1.19498       -3.44585
H          6.69522        0.73496       -0.30915
H          5.33545       -0.35992       -0.66177
H          6.29009        0.35327       -1.98459
