171
-217.83684034
P         -1.46370        0.23659       -0.16648
P          1.66496       -0.69541        0.21704
C         -0.68839        0.78845       -1.70091
C          0.79709       -1.88423       -0.83126
C          0.03510       -0.13735       -2.44226
C          0.68334        0.28164       -3.62022
C          0.53248        1.59341       -4.03867
C         -0.20576        2.49481       -3.30072
C         -0.80706        2.08968       -2.12546
C          0.80619       -3.17625       -0.36136
C          0.13021       -4.17058       -1.04179
C         -0.56899       -3.85563       -2.18696
C         -0.60677       -2.55740       -2.66714
C          0.09909       -1.54832       -1.98495
Cl         1.24730       -0.30510        3.43932
Cl        -1.90373       -1.01245        2.96010
C         -1.41318       -2.26051       -3.88295
C          1.51182       -0.66117       -4.42116
H         -0.30662        3.51365       -3.63720
H         -1.35961        2.79678       -1.53148
H          1.34107       -3.40262        0.54939
H          0.14312       -5.18343       -0.67372
H          1.00044        1.90634       -4.95646
H         -1.10865       -4.62256       -2.71665
C         -4.54255       -2.90979       -1.24166
C         -3.69839       -3.15016       -0.16517
C         -2.77269       -2.16992        0.16468
C         -2.68703       -1.01387       -0.56861
C         -3.51340       -0.80377       -1.64550
C         -4.46690       -1.75005       -2.00274
H         -5.29041       -3.64206       -1.48325
H         -2.11931       -2.29594        1.00817
H         -3.39552        0.09845       -2.21936
C         -3.80052        3.71719        1.63609
C         -4.00720        3.35448        0.31136
C         -3.27940        2.28393       -0.19032
C         -2.35907        1.62294        0.58643
C         -2.17643        1.99885        1.89674
C         -2.89538        3.04944        2.44977
H         -4.36624        4.52739        2.05606
H         -3.43522        1.96533       -1.20625
H         -1.48154        1.45734        2.50851
C          5.68575       -2.54734        1.19936
C          5.18793       -2.63652       -0.09507
C          3.94032       -2.08066       -0.35119
C          3.23384       -1.45944        0.64973
C          3.74306       -1.38122        1.91979
C          4.98086       -1.92748        2.22465
H          6.64938       -2.97359        1.40597
H          3.50547       -2.12953       -1.33516
H          3.16004       -0.89764        2.68195
C          2.81564        3.38985       -1.37635
C          1.81872        3.32853       -0.41061
C          1.45787        2.07640        0.07235
C          2.05638        0.94090       -0.42379
C          3.04034        1.02408       -1.37803
C          3.44829        2.25696       -1.86990
H          3.12156        4.35200       -1.74382
H          0.70318        1.98132        0.83159
H          3.49996        0.11577       -1.72554
Pd        -0.14190       -0.42770        1.68808
C         -2.75248       -4.54131        1.74356
C         -3.81765       -4.45618        0.63193
C         -3.62398       -5.65272       -0.31767
C         -5.21073       -4.52618        1.28245
H         -1.74665       -4.48786        1.32760
H         -2.87103       -3.73255        2.46425
H         -2.83539       -5.48161        2.28815
H         -2.64875       -5.60539       -0.80117
H         -3.68548       -6.59557        0.22547
H         -4.38382       -5.66784       -1.09800
H         -5.99905       -4.51757        0.53060
H         -5.32099       -5.43600        1.87220
H         -5.36890       -3.67384        1.94297
C         -6.84102       -1.18416       -2.52841
C         -5.46650       -1.50210       -3.14230
C         -5.57881       -2.75184       -4.03758
C         -5.03163       -0.31695       -4.02794
H         -6.78319       -0.30262       -1.89011
H         -7.58185       -0.99252       -3.30444
H         -7.19760       -2.01422       -1.91906
H         -4.60759       -3.02494       -4.44803
H         -5.96441       -3.60801       -3.48618
H         -6.25509       -2.57000       -4.87277
H         -5.02497        0.61653       -3.46633
H         -4.03514       -0.47994       -4.43766
H         -5.71788       -0.18738       -4.86471
C         -5.68453        5.25879        0.10920
C         -5.00245        4.07736       -0.60651
C         -6.08835        3.08278       -1.05730
C         -4.25212        4.62031       -1.83788
H         -6.25286        4.91846        0.97459
H         -4.94989        5.99139        0.44310
H         -6.37798        5.76788       -0.56011
H         -6.61653        2.67330       -0.19646
H         -6.81936        3.56836       -1.70349
H         -5.65618        2.24965       -1.60988
H         -4.92709        5.16658       -2.49645
H         -3.45392        5.29763       -1.53435
H         -3.80371        3.81415       -2.41740
C         -1.65114        2.62041        4.63126
C         -2.75340        3.43956        3.92892
C         -4.08976        3.17222        4.64455
C         -2.39397        4.93239        4.04353
H         -1.54939        2.92263        5.67331
H         -1.88403        1.55584        4.62070
H         -0.68465        2.76671        4.14963
H         -4.36614        2.12133        4.56049
H         -4.02270        3.42062        5.70357
H         -4.89452        3.76539        4.21162
H         -1.44801        5.14139        3.54599
H         -3.15829        5.56292        3.59129
H         -2.29470        5.22879        5.08763
C          7.35224       -2.57294       -1.35903
C          6.01573       -3.31929       -1.19297
C          5.28054       -3.30869       -2.54829
C          6.28177       -4.78241       -0.79443
H          7.93585       -2.59601       -0.43948
H          7.95497       -3.02276       -2.14783
H          7.18008       -1.52883       -1.61964
H          5.08637       -2.28953       -2.88201
H          5.87891       -3.79796       -3.31670
H          4.33021       -3.83840       -2.48354
H          5.34364       -5.31815       -0.65051
H          6.85116       -5.29967       -1.56649
H          6.84796       -4.84376        0.13420
C          4.52857       -2.51524        4.61947
C          5.51444       -1.82198        3.66030
C          5.64803       -0.33597        4.04196
C          6.89393       -2.49189        3.80782
H          4.88907       -2.47338        5.64704
H          3.54846       -2.04058        4.59140
H          4.40031       -3.56292        4.34840
H          6.04160       -0.22624        5.05227
H          6.32330        0.17787        3.35809
H          4.68417        0.17029        4.00327
H          7.25552       -2.41034        4.83281
H          6.84372       -3.55186        3.55936
H          7.63138       -2.01848        3.15987
C          0.65562        5.46754       -1.05407
C          1.19790        4.62948        0.11959
C          2.27790        5.42794        0.87103
C          0.03200        4.35311        1.08477
H          0.20138        6.39074       -0.69459
H          1.44611        5.73794       -1.75260
H         -0.10431        4.91447       -1.60412
H          1.86940        6.35461        1.27381
H          2.67803        4.84590        1.70107
H          3.10697        5.68513        0.21259
H         -0.41319        5.28675        1.42724
H         -0.75034        3.77794        0.59271
H          0.36754        3.80345        1.96362
C          5.19451        1.02195       -3.24916
C          4.58330        2.39238       -2.89485
C          5.69638        3.27875       -2.30521
C          4.03635        3.03419       -4.18167
H          4.45035        0.36173       -3.69296
H          6.00558        1.13374       -3.96854
H          5.60319        0.53544       -2.36365
H          6.53214        3.36838       -2.99898
H          5.33315        4.28314       -2.09122
H          6.07373        2.85363       -1.37530
H          3.25778        2.41176       -4.61991
H          3.60846        4.01623       -3.98330
H          4.82587        3.15601       -4.92303
H         -2.40040       -2.71737       -3.80854
H          1.89578       -1.47368       -3.80225
H         -0.92901       -2.65311       -4.77822
H         -1.55727       -1.18796       -4.01767
H          2.36887       -0.15131       -4.86337
H          0.92989       -1.09913       -5.23305
