59
-75.80080398
Cl         1.58523       -0.05288        2.33656
P          1.48039        0.03925       -0.86894
P         -1.70714       -0.17672       -0.78636
C          0.45963        0.27372       -2.39096
H          0.16325        1.32371       -2.45214
H          1.07651        0.05481       -3.26805
C         -0.74974       -0.61343       -2.30307
H         -0.45360       -1.66287       -2.23146
H         -1.40625       -0.51457       -3.17323
C          2.71081       -1.32679       -1.11713
H          2.89033       -1.31462       -2.20120
C          2.66124        1.42888       -0.50450
H          2.42548        1.76496        0.51267
C         -3.00259       -1.42909       -0.35975
H         -3.09175       -1.40699        0.73361
C         -2.80613        1.28156       -1.12890
H         -2.62333        1.56281       -2.17300
C          3.95774       -0.78417       -0.40030
H          3.90558       -1.04304        0.66497
H          4.86586       -1.27534       -0.78247
C          4.04974        0.75888       -0.54250
H          4.53423        1.00338       -1.49744
H          4.70216        1.18455        0.23452
C         -4.26351       -0.83248       -1.00474
H         -4.32066       -1.16997       -2.04918
H         -5.16784       -1.22640       -0.51557
C         -4.23269        0.71830       -0.95637
H         -4.62757        1.05473        0.01204
H         -4.90849        1.14714       -1.71139
C          2.25967       -2.72699       -0.69755
H          3.00800       -3.45509       -1.04040
H          1.34551       -2.97979       -1.25026
C          2.51582        2.58585       -1.48679
H          2.72472        2.21691       -2.49968
H          1.47025        2.91676       -1.51193
C         -2.66206       -2.83973       -0.82248
H         -3.54962       -3.47890       -0.71621
H         -2.44956       -2.82039       -1.89907
C         -2.51709        2.46094       -0.20444
H         -3.33619        3.18875       -0.29002
H         -2.55172        2.10834        0.83490
C          2.03030       -2.91610        0.79397
H          1.31328       -2.19541        1.18416
H          2.95140       -2.79257        1.36507
H          1.64489       -3.91232        1.02383
C          3.41951        3.76415       -1.15456
H          3.20718        4.15298       -0.15682
H          3.29613        4.58777       -1.86157
H          4.47201        3.47575       -1.16911
C         -1.49503       -3.43784       -0.05487
H         -0.61350       -2.80186       -0.13017
H         -1.22241       -4.42969       -0.42243
H         -1.72711       -3.53115        1.00782
C         -1.19090        3.14718       -0.48554
H         -0.35547        2.46139       -0.34964
H         -1.14539        3.51470       -1.51244
H         -1.02123        3.99892        0.17710
Cl        -1.66737        0.13001        2.43118
Pd        -0.08723        0.07208        0.84204
