59
-75.80200093
Cl         1.61856        0.82462        2.33141
P          1.66219       -0.01858       -0.78660
P         -1.50341       -0.20761       -0.80784
C          0.72820        0.31792       -2.34298
H          0.51865        1.38737       -2.37886
H          1.37681        0.08952       -3.19424
C         -0.54522       -0.48112       -2.36651
H         -0.31754       -1.54774       -2.43220
H         -1.18048       -0.23116       -3.22177
C          2.62237       -1.59848       -0.96763
H          2.26427       -2.07658       -1.88729
C          3.08843        1.14623       -0.58678
H          3.30714        1.17278        0.48788
C         -2.52090       -1.67500       -0.28691
H         -2.19299       -1.92298        0.73001
C         -2.84799        1.06889       -0.92650
H         -3.10797        1.14730       -1.98916
C          4.08914       -1.13245       -1.12066
H          4.64170       -1.41330       -0.21369
H          4.58177       -1.67709       -1.93975
C          4.20908        0.40165       -1.32954
H          4.13991        0.63835       -2.40081
H          5.19513        0.77089       -1.00712
C         -3.96190       -1.13419       -0.26730
H         -4.46642       -1.43608       -1.19524
H         -4.53644       -1.60356        0.54549
C         -3.99933        0.41073       -0.14592
H         -3.91338        0.69591        0.91205
H         -4.96853        0.81018       -0.48232
C          2.41397       -2.52082        0.23080
H          2.57849       -1.94177        1.14960
H          3.19738       -3.29189        0.22955
C          2.81379        2.55788       -1.09050
H          3.76177        3.11114       -1.14298
H          2.45634        2.50591       -2.12647
C         -2.33926       -2.87841       -1.20614
H         -2.65418       -2.59856       -2.22007
H         -1.27250       -3.11753       -1.29263
C         -2.45946        2.44247       -0.37695
H         -3.37377        2.98191       -0.09250
H         -1.90597        2.30752        0.56100
C          1.04694       -3.18325        0.25905
H          0.91930       -3.82479        1.13392
H          0.89176       -3.80178       -0.62685
H          0.24865       -2.44217        0.28093
C          1.82364        3.31000       -0.21507
H          0.88228        2.76751       -0.12698
H          1.59871        4.30466       -0.60642
H          2.20935        3.43384        0.79864
C         -3.10347       -4.10645       -0.73399
H         -4.17652       -3.91332       -0.68482
H         -2.78514       -4.40678        0.26616
H         -2.95497       -4.96193       -1.39695
C         -1.66253        3.28491       -1.35865
H         -2.23471        3.47858       -2.26805
H         -1.38093        4.25202       -0.93570
H         -0.74733        2.78110       -1.66208
Cl        -1.60814        0.31246        2.36490
Pd         0.05075        0.18422        0.86191
