171
-217.83599381
P         -1.67576        0.68538        0.20323
P          1.58020       -0.16716       -0.21843
C         -0.86079        1.90185       -0.85153
C          0.77158       -0.72370       -1.72755
C         -0.12657        1.58319       -1.98793
C          0.54725        2.61612       -2.66602
C          0.43880        3.91729       -2.20511
C         -0.29566        4.21423       -1.07769
C         -0.93628        3.19743       -0.39658
C          0.94134       -2.01495       -2.16240
C          0.32563       -2.44519       -3.32089
C         -0.46580       -1.57281       -4.03847
C         -0.65920       -0.26821       -3.61379
C         -0.00820        0.17441       -2.44601
Cl         2.00671        1.08096        2.77573
Cl        -1.10215        0.15462        3.40944
C         -1.53093        0.64710       -4.40057
C          1.38671        2.34544       -3.86412
H         -0.36295        5.23004       -0.72393
H         -1.49526        3.40945        0.50305
H          1.56170       -2.68884       -1.59754
H          0.46042       -3.45928       -3.66013
H          0.94765        4.70227       -2.73877
H         -0.93820       -1.90187       -4.94821
C         -2.77779       -3.41722       -1.37683
C         -1.81770       -3.33895       -0.37435
C         -1.45576       -2.07704        0.07962
C         -2.03714       -0.94970       -0.45263
C         -2.99753       -1.04927       -1.42896
C         -3.39267       -2.29131       -1.90931
H         -3.07569       -4.38058       -1.74540
H         -0.72800       -1.97664        0.86515
H         -3.44970       -0.14719       -1.80175
C         -5.68383        2.41961        1.40453
C         -4.90256        1.83111        2.39109
C         -3.66859        1.31701        2.01769
C         -3.24164        1.39868        0.71731
C         -4.02387        1.98953       -0.24478
C         -5.26914        2.51237        0.08182
H         -6.64557        2.81599        1.67405
H         -3.02054        0.85299        2.73780
H         -3.64960        2.04290       -1.25308
C          3.71152       -3.74249        1.65235
C          2.74433       -3.09126        2.40319
C          2.10577       -2.00095        1.83078
C          2.43462       -1.56356        0.56798
C          3.41845       -2.20848       -0.14382
C          4.06880       -3.32023        0.37952
H          4.19727       -4.60504        2.06999
H          1.34437       -1.49082        2.38813
H          3.66735       -1.84788       -1.12545
C          4.54745        3.05596       -1.38309
C          3.67341        3.29652       -0.33078
C          2.79176        2.28486        0.02486
C          2.77977        1.09370       -0.65566
C          3.63739        0.88109       -1.70806
C          4.55481        1.85529       -2.08370
H          5.24222        3.82827       -1.65432
H          2.10569        2.41883        0.84126
H          3.57779       -0.04307       -2.25675
Pd         0.18818        0.46431        1.59882
C         -1.53067       -4.55803        1.79215
C         -1.21480       -4.58925        0.28524
C          0.30834       -4.60654        0.07407
C         -1.79861       -5.88677       -0.30644
H         -2.60656       -4.50729        1.95798
H         -1.15578       -5.45219        2.28930
H         -1.07867       -3.69159        2.27239
H          0.77063       -3.71238        0.48634
H          0.76233       -5.47036        0.55913
H          0.54883       -4.65471       -0.98725
H         -1.36499       -6.76125        0.17868
H         -2.87815       -5.93234       -0.16394
H         -1.58512       -5.96259       -1.37252
C         -5.12642       -1.08453       -3.33014
C         -4.50785       -2.44576       -2.95391
C         -5.62450       -3.33669       -2.37711
C         -3.93292       -3.09429       -4.22480
H         -5.92452       -1.21072       -4.06154
H         -5.55431       -0.59470       -2.45555
H         -4.38228       -0.42041       -3.76766
H         -6.02068       -2.90824       -1.45660
H         -6.44774       -3.43677       -3.08429
H         -5.25856       -4.33730       -2.15059
H         -3.15524       -2.46723       -4.65761
H         -3.49655       -4.06889       -4.00894
H         -4.70907       -3.23354       -4.97714
C         -4.39422        1.07762        4.76846
C         -5.41429        1.76213        3.83698
C         -6.72563        0.95620        3.87404
C         -5.66567        3.18980        4.35587
H         -3.45003        1.62153        4.78418
H         -4.76904        1.03806        5.79103
H         -4.19659        0.05435        4.45002
H         -7.10375        0.87295        4.89282
H         -7.49860        1.42904        3.26934
H         -6.56869       -0.05108        3.48859
H         -6.01139        3.17409        5.38933
H         -4.75049        3.78017        4.31486
H         -6.42063        3.70108        3.75979
C         -7.49329        2.35513       -1.06163
C         -6.18327        3.15863       -0.96839
C         -5.52280        3.17854       -2.36147
C         -6.48971        4.60963       -0.55439
H         -8.02420        2.35237       -0.11036
H         -8.15838        2.77871       -1.81399
H         -7.29070        1.31954       -1.33442
H         -4.59136        3.74432       -2.34592
H         -5.30791        2.16831       -2.70922
H         -6.18033        3.64550       -3.09461
H         -7.12022        5.10160       -1.29484
H         -7.00862        4.64813        0.40262
H         -5.56883        5.18475       -0.45930
C          3.69310       -3.47105        4.68976
C          2.42250       -3.57099        3.82599
C          1.94143       -5.03222        3.77764
C          1.32159       -2.71321        4.48242
H          4.49065       -4.09933        4.29489
H          4.05818       -2.44454        4.71724
H          3.49496       -3.78694        5.71382
H          2.70940       -5.69006        3.37259
H          1.68597       -5.39206        4.77414
H          1.05711       -5.12490        3.14920
H          1.62810       -1.66998        4.55657
H          0.39347       -2.75883        3.91415
H          1.10660       -3.06515        5.49109
C          5.47774       -3.40424       -1.73706
C          5.11005       -4.11495       -0.42108
C          4.52883       -5.50062       -0.75401
C          6.39581       -4.27444        0.41279
H          6.23418       -3.96728       -2.28364
H          4.61019       -3.30280       -2.38885
H          5.88280       -2.41311       -1.53726
H          4.28672       -6.05351        0.15315
H          3.61456       -5.40352       -1.33953
H          5.23838       -6.09430       -1.33007
H          6.21418       -4.84212        1.32429
H          7.16478       -4.79872       -0.15439
H          6.79239       -3.30000        0.69737
C          2.63861        4.70624        1.51774
C          3.71587        4.63663        0.41671
C          3.46915        5.78644       -0.57689
C          5.09752        4.80398        1.07424
H          1.64010        4.58881        1.09755
H          2.79131        3.92910        2.26630
H          2.67024        5.66746        2.03026
H          2.49971        5.67461       -1.06080
H          3.48206        6.75034       -0.06845
H          4.23113        5.81026       -1.35490
H          5.29447        3.98567        1.76660
H          5.89203        4.81012        0.32891
H          5.15429        5.73907        1.63113
C          6.54501        2.72594       -3.41457
C          5.54473        1.56940       -3.22438
C          4.77687        1.36566       -4.54268
C          6.33782        0.29131       -2.89523
H          6.03227        3.64864       -3.68564
H          7.11805        2.90173       -2.50431
H          7.25268        2.49772       -4.21153
H          4.05343        0.55549       -4.45778
H          4.24105        2.27147       -4.82305
H          5.45970        1.11860       -5.35545
H          5.67940       -0.57422       -2.84750
H          7.09212        0.09161       -3.65615
H          6.84270        0.38610       -1.93405
H         -1.98978        1.40198       -3.75998
H          0.87959        2.66084       -4.77695
H         -2.33518        0.09820       -4.89224
H         -0.95927        1.16120       -5.17403
H          1.62406        1.28492       -3.95572
H          2.32845        2.89164       -3.79903
