111
-148.54860852
P         -2.65007        1.97142        0.52742
P          0.14185        0.45952        0.46884
C         -1.76494        1.62273        2.07829
C         -0.52609        1.02096        2.04119
C         -3.74072        3.45652        0.76797
C         -3.53648        4.51093       -0.29629
C         -2.32995        1.94375        3.29717
H         -3.31083        2.38783        3.33168
C         -1.64552        1.67455        4.46997
H         -2.08807        1.92660        5.41986
C         -0.39921        1.08043        4.42581
H          0.13219        0.86766        5.33879
C          0.15992        0.74659        3.20579
H          1.12197        0.26130        3.15209
Pd        -1.06910        1.59642       -1.14584
Cl        -2.32807        2.87044       -2.48166
Cl         0.54338        1.05718       -2.61384
C         -5.15792        2.84652        0.77042
C         -3.92871        0.68790        0.13814
H         -2.48915        4.81416       -0.36032
H         -3.83031        4.12877       -1.27456
H         -4.13723        5.40215       -0.10056
H         -5.87266        3.57711        0.36432
H         -5.48392        2.65805        1.80382
H         -3.63032        0.21655       -0.80858
C         -5.21543        1.51938       -0.03619
C         -4.01187       -0.34659        1.23959
H         -3.48721        3.87283        1.75185
H         -6.08542        0.91861        0.26669
H         -5.36927        1.74873       -1.10095
H         -3.05329       -0.84831        1.38449
H         -4.28372        0.12125        2.18761
H         -4.76158       -1.11006        1.01852
C         -1.39541       -3.76239       -0.27869
C         -0.94664       -2.97005       -1.36594
C         -0.48890       -1.69262       -1.09744
C         -0.40837       -1.22260        0.18587
C         -0.72864       -2.02651        1.24803
C         -1.18889       -3.31758        1.05249
O         -2.08848       -4.97758       -0.52318
C         -0.99084       -3.45364       -2.82313
H         -0.19539       -1.03167       -1.89363
H         -0.63164       -1.62260        2.24030
C         -1.48950       -4.19528        2.27709
C          4.68138        0.59614        0.18646
C          4.03648       -0.54833        0.72140
C          2.65290       -0.55249        0.77945
C          1.92563        0.54628        0.40282
C          2.54774        1.69448       -0.01021
C          3.92858        1.76439       -0.09855
O          6.07227        0.55877       -0.09886
C          4.80546       -1.79017        1.19881
H          2.11802       -1.42803        1.10543
H          1.93321        2.53363       -0.28745
C          4.58132        3.08130       -0.54678
C         -0.79653       -4.97817       -2.90955
C         -2.33609       -3.05318       -3.44767
C          0.14736       -2.80662       -3.64537
C         -0.54677       -3.83483        3.44807
C         -2.94048       -3.96376        2.72576
C         -1.26265       -5.68487        1.96162
C         -3.49777       -4.82364       -0.63626
H         -1.60816       -5.51007       -2.41950
H         -0.76343       -5.31094       -3.94668
H          0.13511       -5.27389       -2.42830
H         -3.16875       -3.50187       -2.91106
H         -2.46725       -1.97163       -3.41816
H         -2.39417       -3.37216       -4.48795
H          1.11099       -2.95928       -3.16009
H          0.20123       -3.24342       -4.64223
H         -0.00526       -1.73618       -3.77421
H         -0.66737       -4.53771        4.27209
H          0.49522       -3.86681        3.13054
H         -0.75460       -2.84150        3.84308
H         -3.09861       -2.92027        2.99697
H         -3.64249       -4.20960        1.93247
H         -3.18345       -4.57732        3.59289
H         -1.95065       -6.03789        1.19751
H         -0.24831       -5.85016        1.59995
H         -1.41136       -6.30048        2.84841
H         -3.82619       -5.17000       -1.61606
H         -3.99389       -5.42813        0.12287
H         -3.77800       -3.77723       -0.50816
C          6.38225        0.09956       -1.40876
C          6.18036       -1.40484        1.77407
C          4.03131       -2.51023        2.32704
C          4.97538       -2.76519        0.02380
C          5.97026        3.26077        0.09247
C          4.69547        3.09246       -2.07887
C          3.72588        4.29182       -0.10861
H          6.06931       -0.68131        2.58101
H          6.69830       -2.27802        2.17003
H          6.81855       -0.96085        1.01426
H          4.63078       -3.31287        2.75602
H          3.77900       -1.81612        3.12833
H          3.11024       -2.96133        1.96076
H          5.50758       -3.66353        0.33555
H          4.00477       -3.06684       -0.36949
H          5.53404       -2.30917       -0.78988
H          6.40328        4.22428       -0.17514
H          5.90209        3.20931        1.17859
H          6.66134        2.48819       -0.23481
H          3.71225        2.99297       -2.53826
H          5.14099        4.02243       -2.43100
H          5.31020        2.26926       -2.43461
H          2.77911        4.33205       -0.64506
H          4.24714        5.22716       -0.31118
H          3.51482        4.25092        0.95966
H          6.93335        0.87106       -1.94624
H          7.01287       -0.78711       -1.34621
H          5.46831       -0.14106       -1.95336
