64
-97.20749511
Cl        -1.58214       -1.39899       -2.56335
Cl         1.60728       -1.50838       -2.88233
P          1.95647       -0.65091        0.23948
C          2.20244       -2.32888        0.98095
C          3.72381       -0.19827       -0.09974
P         -1.29545       -0.13429        0.39227
C          1.26664        0.54925        1.43247
C         -0.15968        0.79793        1.48830
C         -0.37860        1.91815        2.39158
C          0.91484        2.34815        2.89477
C          1.93460        1.48951        2.31820
H         -1.34014        2.37748        2.62587
H          1.08878        3.16437        3.59981
Pd         0.18207       -0.99197       -1.23585
H          3.01123        1.55705        2.48608
C         -4.87629        2.48483       -0.64870
C         -4.17344        1.85995       -1.65946
C         -3.09921        1.04806       -1.34899
C         -2.72110        0.87582       -0.03687
C         -3.43395        1.47940        0.97435
C         -4.51305        2.28985        0.66920
H         -5.71596        3.11688       -0.88798
H         -4.46614        1.99687       -2.68758
H         -2.56889        0.52144       -2.12385
H         -3.15389        1.30136        2.00007
H         -5.06936        2.76636        1.45967
C         -2.77864       -3.93158        2.39371
C         -2.38104       -2.85757        3.16656
C         -1.93419       -1.69837        2.55772
C         -1.88683       -1.62601        1.18481
C         -2.28604       -2.69023        0.41114
C         -2.73341       -3.85011        1.01549
H         -3.12667       -4.83503        2.86741
H         -2.41782       -2.92157        4.24167
H         -1.61736       -0.85095        3.14477
H         -2.24138       -2.60269       -0.66255
H         -3.04514       -4.68673        0.41204
C          4.04517       -0.20839       -1.57774
H          3.87920        0.80467        0.31903
C          4.50818       -1.25896        0.69768
H          4.72890       -0.88161        1.70699
C          3.71190       -2.58688        0.80748
H          5.48560       -1.43018        0.22343
C          1.74610       -2.33530        2.42369
H          1.60787       -3.03447        0.38452
H          4.08104       -3.19258        1.64766
H          3.88731       -3.19207       -0.09387
H          1.89084       -3.31421        2.88685
H          2.30917       -1.60409        3.00716
H          0.68875       -2.07604        2.50664
H          5.09089        0.04737       -1.76226
H          3.86892       -1.19917       -1.99934
H          3.42446        0.49799       -2.13138
Fe         0.85033        2.45151        0.85418
C          1.46038        4.24004        0.06210
C          0.03536        4.05926       -0.15667
C         -0.13580        2.81414       -0.88292
C          1.17462        2.26138       -1.16732
C          2.16478        3.14119       -0.57731
H          1.92574        5.08429        0.57608
H         -0.76263        4.72178        0.18584
H         -1.08859        2.39475       -1.20716
H          1.37580        1.36534       -1.75712
H          3.24869        3.01792       -0.63069
