59
-75.79768049
Cl         1.71622        0.71024        2.32277
P          1.65243        0.07781       -0.82762
P         -1.48893       -0.28492       -0.73354
C          0.63380        0.27277       -2.35685
H          0.29725        1.30919       -2.42385
H          1.26341        0.07244       -3.22940
C         -0.54349       -0.65678       -2.27429
H         -0.21283       -1.69771       -2.22457
H         -1.21420       -0.56218       -3.13402
C          2.72240       -1.42600       -0.98884
H          2.42572       -1.94230       -1.91041
C          2.95224        1.37794       -0.55727
H          2.70342        1.88607        0.38285
C         -2.77294       -1.55492       -0.32499
H         -2.67686       -1.75207        0.74972
C         -2.56386        1.20717       -0.93675
H         -2.58038        1.43556       -2.00929
C          4.13597       -0.82480       -1.11965
H          4.87871       -1.53078       -0.71987
H          4.39087       -0.69726       -2.18229
C          4.24178        0.54577       -0.40000
H          5.10221        1.11638       -0.77861
H          4.44738        0.37777        0.66764
C         -4.09390       -0.82171       -0.61955
H         -4.40704       -1.05533       -1.64648
H         -4.89710       -1.20429        0.02855
C         -3.94393        0.71655       -0.46250
H         -4.06962        0.98673        0.59504
H         -4.74550        1.24583       -0.99979
C          2.56416       -2.36329        0.20587
H          2.64923       -1.77315        1.12808
H          3.41264       -3.06136        0.23071
C          3.01363        2.40714       -1.68650
H          4.00633        2.87855       -1.69057
H          2.94238        1.88317       -2.64831
C         -2.58047       -2.84496       -1.11361
H         -2.65043       -2.61856       -2.18570
H         -1.55692       -3.21278       -0.96210
C         -2.01921        2.39275       -0.14920
H         -2.01196        2.13458        0.91825
H         -0.96447        2.54689       -0.41278
C          1.26047       -3.14799        0.19023
H          0.39476       -2.48626        0.18444
H          1.16458       -3.80081        1.06074
H          1.18814       -3.77522       -0.70034
C          1.94614        3.48628       -1.57335
H          2.06531        4.06187       -0.65328
H          0.94342        3.06199       -1.54946
H          1.98461        4.19047       -2.40758
C         -3.58144       -3.92674       -0.73597
H         -4.60667       -3.60197       -0.92223
H         -3.51062       -4.17491        0.32474
H         -3.42213       -4.84817       -1.30077
C         -2.80812        3.67327       -0.37623
H         -3.85133        3.55452       -0.07813
H         -2.39867        4.51235        0.19089
H         -2.80469        3.95603       -1.43063
Cl        -1.53332       -0.12286        2.41290
Pd         0.11353        0.05698        0.90200
