105
-153.06356603
Cl         3.22598        1.71231       -0.94179
Pd         1.05952        1.11495       -1.08160
P         -1.25170        0.66982       -1.22696
N         -1.54841       -0.97159       -1.78508
C         -0.54764       -1.94116       -1.57623
C         -0.55158       -2.73435       -0.40040
C          0.42703       -3.72754       -0.22146
C          0.41535       -4.55176        1.03979
C          1.79358       -5.13864        1.37560
C          2.36229       -5.88274        0.16276
C          2.50642       -4.94822       -1.05180
C          1.41183       -3.91652       -1.19432
C          1.42192       -3.09965       -2.32136
C          0.47148       -2.12889       -2.51063
H          0.49597       -1.49426       -3.37889
H          2.19995       -3.23558       -3.05351
H          3.46707       -4.42369       -0.99434
H          3.32544       -6.35000        0.41180
H          2.47500       -4.32494        1.65481
H          0.04601       -3.94396        1.87497
C         -1.46133       -2.33327        0.70287
C         -0.93753       -1.47276        1.69886
C         -1.78159       -1.02758        2.71239
C         -3.09941       -1.40969        2.73859
C         -3.63464       -2.24665        1.76341
C         -5.10454       -2.58281        1.83777
C         -5.55636       -3.69268        0.87232
C         -4.86393       -3.56235       -0.48900
C         -3.33911       -3.64400       -0.32561
C         -2.81101       -2.71624        0.73745
H         -3.04877       -4.66926       -0.06706
H         -5.12879       -2.59787       -0.94031
H         -6.64903       -3.68521        0.75345
H         -5.67617       -1.66865        1.63772
H         -3.74463       -1.04724        3.52092
H         -1.38794       -0.38059        3.47444
N          0.43983       -1.20123        1.69562
P          1.27041        0.23506        1.11023
C          2.95816       -0.39204        0.99181
C          3.91602       -0.00100        1.89663
C          5.20215       -0.49830        1.79486
C          5.53517       -1.39525        0.78888
C          4.55541       -1.77244       -0.11877
C          3.26916       -1.27708       -0.01131
H          2.50607       -1.57078       -0.71293
H          4.80998       -2.44743       -0.91761
C          6.92709       -1.90705        0.65636
H          5.95840       -0.18722        2.49516
H          3.65648        0.69533        2.67712
C          1.29669        1.57180        2.29994
C          1.72281        2.82168        1.91852
C          1.71048        3.85815        2.83307
C          1.27503        3.64602        4.13477
C          0.88118        2.36783        4.50870
C          0.89369        1.33298        3.59117
H          0.60351        0.33513        3.87532
H          0.56518        2.18797        5.52205
C          1.27963        4.75736        5.12575
H          2.04473        4.83918        2.54177
H          2.08937        2.97003        0.91541
H          0.95134       -1.81714        1.07232
H         -2.45320       -1.15630       -1.36954
C         -1.67872        1.83086       -2.52341
C         -2.03430        1.34396       -3.75705
C         -2.35751        2.22284       -4.77528
C         -2.31956        3.59427       -4.56012
C         -1.96851        4.06454       -3.30119
C         -1.64557        3.18376       -2.28471
H         -1.36699        3.54420       -1.30704
H         -1.94691        5.12595       -3.12235
C         -2.68584        4.54196       -5.64877
H         -2.63744        1.84783       -5.74480
H         -2.04818        0.27759       -3.91573
C         -2.24893        1.10889        0.19148
C         -3.59633        0.83714        0.19903
C         -4.36751        1.22962        1.27883
C         -3.79260        1.89241        2.35549
C         -2.43568        2.18129        2.31366
C         -1.67026        1.79285        1.23077
H         -0.62223        2.02864        1.18739
H         -1.97962        2.70773        3.13446
C         -4.62188        2.31674        3.51664
H         -5.42327        1.01955        1.29276
H         -4.04335        0.32966       -0.64087
Cl         1.07054        1.65323       -3.26695
H          2.55298       -5.53626       -1.97718
H          1.74012       -5.79686        2.25419
H          1.69286       -6.71336       -0.09433
H         -0.31503       -5.36086        0.92137
H         -5.22680       -4.32734       -1.18985
H         -2.83994       -3.43291       -1.27931
H         -5.34912       -2.85833        2.87155
H         -5.31627       -4.67176        1.30574
H          7.42606       -1.94812        1.62557
H          6.93766       -2.91363        0.23584
H          7.51506       -1.26236        0.00176
H          2.23842        4.81078        5.64323
H          1.10495        5.71846        4.64011
H          0.49937        4.61940        5.87561
H         -2.16570        5.49390       -5.53359
H         -2.42178        4.13787       -6.62704
H         -3.75831        4.74124       -5.64466
H         -4.03469        2.32626        4.43607
H         -5.02169        3.31971        3.36151
H         -5.46252        1.63818        3.66859
