111
-148.55374705
P         -2.24903        2.49342       -0.22274
P         -0.16027        0.22802        0.49308
C         -1.80318        2.20091        1.50623
C         -0.93066        1.18146        1.81572
C         -1.91187        4.24380       -0.71172
C         -0.76767        4.30361       -1.70056
C         -2.34143        2.97815        2.51149
H         -3.00941        3.78571        2.25913
C         -2.01675        2.71655        3.83151
H         -2.43802        3.32086        4.61823
C         -1.15742        1.67970        4.14152
H         -0.90783        1.47325        5.16926
C         -0.61130        0.91008        3.12987
H          0.06543        0.10019        3.35419
Pd        -1.22852        0.84211       -1.47729
Cl        -2.57489        1.42819       -3.17123
Cl        -0.19753       -0.89234       -2.46986
C         -3.26479        4.72461       -1.27093
C         -4.07891        2.42437       -0.50960
H         -0.56381        5.33011       -2.01461
H          0.14937        3.89020       -1.27289
H         -1.00182        3.72350       -2.59562
H         -3.25064        4.61923       -2.36442
H         -3.39824        5.80027       -1.08051
H         -4.21445        1.88376       -1.45548
C         -4.45329        3.90620       -0.69141
C         -4.80977        1.71468        0.61028
H         -1.66196        4.77990        0.21329
H         -4.74584        4.32080        0.28300
H         -5.34412        3.99992       -1.33105
H         -5.88339        1.66227        0.41556
H         -4.43871        0.69585        0.74028
H         -4.67400        2.23532        1.55897
C         -1.03202       -4.22572        0.79241
C          0.31351       -3.78282        0.72007
C          0.55081       -2.42176        0.63387
C         -0.47871       -1.51970        0.68546
C         -1.77265       -1.93590        0.85823
C         -2.07973       -3.28344        0.95854
O         -1.33226       -5.60716        0.65619
C          1.50658       -4.75023        0.68128
H          1.55012       -2.04663        0.50232
H         -2.54605       -1.18778        0.89850
C         -3.53872       -3.69889        1.20305
C          4.28776        1.17935        0.09275
C          3.63583        0.38608       -0.88466
C          2.27992        0.15432       -0.73834
C          1.59091        0.60220        0.35755
C          2.24016        1.28317        1.35449
C          3.59522        1.55713        1.27136
O          5.61881        1.62525       -0.12382
C          4.36265       -0.19989       -2.10523
H          1.72852       -0.37311       -1.49568
H          1.66806        1.60998        2.20377
C          4.28713        2.27607        2.44047
C          2.76133       -4.09477        1.30291
C          1.21628       -6.02389        1.49562
C          1.81627       -5.11279       -0.77916
C         -4.27354       -2.63240        2.04688
C         -4.25877       -3.83799       -0.14687
C         -3.61817       -5.02120        1.98753
C         -1.56291       -6.01735       -0.68590
H          3.57098       -4.81854        1.39350
H          3.13441       -3.27437        0.69177
H          2.54407       -3.70958        2.29882
H          0.38982       -6.58750        1.07008
H          2.08542       -6.68080        1.51881
H          0.95426       -5.77125        2.52250
H          2.67812       -5.77653       -0.84300
H          0.97225       -5.61175       -1.24900
H          2.03484       -4.21721       -1.36001
H         -4.40978       -1.70458        1.49402
H         -5.26531       -2.98151        2.33350
H         -3.71992       -2.41059        2.95890
H         -4.23229       -2.89702       -0.69602
H         -3.78816       -4.59586       -0.76853
H         -5.30240       -4.11800       -0.00609
H         -3.07179       -4.94319        2.92687
H         -4.65175       -5.27956        2.21654
H         -3.19155       -5.84544        1.42169
H         -2.56918       -6.42590       -0.77658
H         -1.45063       -5.17174       -1.36582
H         -0.85303       -6.79875       -0.95666
C          5.70894        2.86527       -0.81433
C          5.83449       -0.51226       -1.78010
C          3.70810       -1.53135       -2.54040
C          4.27516        0.79440       -3.27282
C          3.58509        1.94642        3.77777
C          5.75189        1.82287        2.58006
C          4.22160        3.79408        2.21488
H          6.33075       -0.98605       -2.62670
H          6.38854        0.39104       -1.53803
H          5.90384       -1.18529       -0.92611
H          4.29221       -2.01139       -3.32514
H          3.64425       -2.22270       -1.70095
H          2.70545       -1.37957       -2.93691
H          4.77437        0.40198       -4.15833
H          3.23533        0.99298       -3.53164
H          4.73954        1.74406       -3.01775
H          4.14930        2.34700        4.61969
H          2.58732        2.37998        3.82757
H          3.49926        0.86880        3.91528
H          6.33668        2.09552        1.70505
H          6.22370        2.28325        3.44777
H          5.80935        0.74114        2.69653
H          4.69141        4.33172        3.03810
H          3.18690        4.12795        2.14008
H          4.72832        4.07835        1.29585
H          4.71300        3.25715       -1.02468
H          6.26105        3.58197       -0.20653
H          6.24933        2.72557       -1.75037
