45
-71.81606224
C          2.22916        1.26351        2.46207
P          1.49386        0.88467        0.83639
P         -1.03209        0.17455       -0.92250
C         -0.43009       -0.31823       -2.57323
Cl         1.37813       -1.86655        2.34907
H          2.92346        2.09421        2.37424
H         -0.95896        0.23713       -3.34252
Cl        -1.22366       -2.73105        0.31045
C          0.44904        2.21570        0.20795
C         -0.63960        1.89985       -0.57523
C         -1.43321        2.89865       -1.10024
C         -1.12990        4.22357       -0.84030
C         -0.03412        4.54134       -0.06115
C          0.75986        3.53580        0.46209
H         -2.28412        2.63437       -1.70759
H         -1.74794        5.00667       -1.24766
H          0.20476        5.57313        0.13772
H          1.62365        3.77286        1.06157
Pd         0.15249       -1.00230        0.68146
H         -0.59065       -1.38175       -2.72537
H          2.76451        0.39524        2.83536
H          0.63268       -0.10907       -2.65522
C         -5.45585       -0.60791       -0.20645
C         -4.70251        0.07310        0.72911
C         -3.35973        0.30861        0.49236
C         -2.78262       -0.13450       -0.67605
C         -3.52841       -0.81735       -1.60966
C         -4.87097       -1.05410       -1.37517
H         -6.50129       -0.79468       -0.02257
H         -5.15709        0.41773        1.64334
H         -2.75546        0.83498        1.21491
H         -3.05979       -1.16897       -2.51429
H         -5.45818       -1.59023       -2.10256
C          4.56885       -0.33707       -2.27691
C          3.82536        0.81236       -2.46316
C          2.89750        1.19473       -1.51131
C          2.72683        0.42831       -0.38165
C          3.45541       -0.72377       -0.19650
C          4.38446       -1.10822       -1.14579
H          5.29177       -0.63554       -3.01847
H          3.96611        1.40992       -3.34880
H          2.30372        2.08453       -1.64474
H          3.26807       -1.32744        0.67747
H          4.95683       -2.01039       -1.00543
H          1.44670        1.52536        3.16854
