105
-153.06047231
Cl         0.23926        3.41045        1.92742
Pd        -0.16045        1.94503        0.27146
P         -0.71710        0.27034       -1.31867
N          0.12447       -1.14272       -1.98218
C          0.20923       -2.47444       -1.58767
C         -0.12592       -2.96216       -0.29484
C          0.18949       -4.29689        0.04232
C          0.02151       -4.75081        1.47464
C          0.82567       -6.01258        1.81967
C          0.59880       -7.09712        0.76264
C          1.03824       -6.61020       -0.62791
C          0.70478       -5.16661       -0.92124
C          0.95412       -4.68587       -2.19957
C          0.73092       -3.37189       -2.51896
H          0.97179       -3.01170       -3.50424
H          1.35867       -5.35720       -2.93827
H          2.12160       -6.74168       -0.73622
H          1.12244       -8.02376        1.03709
H          1.89328       -5.76279        1.86104
H          0.30705       -3.92851        2.14303
C         -0.71295       -2.10009        0.76628
C          0.11419       -1.12358        1.38048
C         -0.33802       -0.46398        2.52371
C         -1.58424       -0.72939        3.02892
C         -2.43315       -1.64825        2.41837
C         -3.78903       -1.88218        3.04352
C         -4.73984       -2.77728        2.22787
C         -3.98011       -3.90241        1.51769
C         -2.91401       -3.31322        0.58441
C         -1.99932       -2.33848        1.28257
H         -2.33140       -4.10938        0.10720
H         -4.66912       -4.55769        0.96620
H         -5.26095       -2.16885        1.47903
H         -4.25809       -0.90758        3.22946
H         -1.92721       -0.20878        3.90692
H          0.29042        0.27699        2.98276
N          1.26908       -0.74269        0.70371
P          1.81124        0.87206        0.97577
C          2.89551        1.39814       -0.34451
C          3.15138        2.73916       -0.50424
C          3.90779        3.16756       -1.58005
C          4.40991        2.25469       -2.49838
C          4.12999        0.90571       -2.32314
C          3.37334        0.47842       -1.24717
H          3.14274       -0.56635       -1.11660
H          4.49977        0.19293       -3.04030
C          5.19021        2.71909       -3.67846
H          4.10159        4.21728       -1.71973
H          2.72964        3.44310        0.19627
C          2.66258        0.89089        2.55435
C          2.50268        1.91211        3.45927
C          3.18044        1.88010        4.66263
C          4.01943        0.81791        4.97180
C          4.17390       -0.20277        4.04311
C          3.49343       -0.16672        2.83842
H          3.59845       -0.96233        2.11701
H          4.82981       -1.02619        4.26852
C          4.77009        0.79361        6.25778
H          3.06068        2.68150        5.37157
H          1.83814        2.72490        3.22261
H          1.11441       -0.83163       -0.29994
H          0.34911       -0.93275       -2.94691
C         -0.60764        1.45275       -2.67153
C         -1.71860        1.87859       -3.35920
C         -1.58181        2.79602       -4.38446
C         -0.33033        3.28688       -4.73237
C          0.77844        2.84946       -4.02123
C          0.63795        1.93174       -2.99670
H          1.49636        1.59746       -2.43850
H          1.75203        3.23660       -4.26831
C         -0.18586        4.29911       -5.81478
H         -2.45041        3.14264       -4.91785
H         -2.69051        1.50429       -3.08370
C         -2.44985       -0.15412       -1.14533
C         -2.99620       -0.98215       -2.09684
C         -4.34254       -1.29823       -2.04471
C         -5.14684       -0.79070       -1.03391
C         -4.57647        0.04595       -0.08349
C         -3.23238        0.36351       -0.14064
H         -2.79413        1.01989        0.59292
H         -5.19179        0.45187        0.70107
C         -6.59374       -1.13881       -0.98183
H         -4.77598       -1.94608       -2.78732
H         -2.36413       -1.37869       -2.87590
Cl        -1.90105        3.17750       -0.43499
H          0.58924       -7.23826       -1.40798
H          0.56873       -6.38195        2.82260
H         -0.46669       -7.35865        0.73766
H         -1.03975       -4.93417        1.67278
H         -3.49607       -4.54259        2.26564
H         -3.40574       -2.79079       -0.24214
H         -3.63469       -2.32350        4.03550
H         -5.53179       -3.18968        2.86875
H          4.52976        2.93088       -4.52043
H          5.74615        3.62929       -3.44944
H          5.90965        1.96346       -3.99692
H          4.94888       -0.22993        6.59016
H          5.73721        1.28673        6.15092
H          4.21666        1.30520        7.04648
H         -0.28110        5.30929       -5.41438
H          0.78762        4.21992       -6.30077
H         -0.95030        4.16731       -6.58178
H         -6.73321       -2.22087       -0.97737
H         -7.06809       -0.73856       -0.08476
H         -7.12101       -0.73447       -1.84694
