171
-217.83907348
P         -1.67176        0.66973        0.23894
P          1.49717       -0.21714       -0.29714
C         -0.93179        1.77403       -0.98622
C          0.60055       -0.93140       -1.68955
C         -0.28557        1.34447       -2.13943
C          0.34764        2.29960       -2.95713
C          0.28914        3.63795       -2.60691
C         -0.36075        4.04656       -1.46225
C         -0.96260        3.10643       -0.64822
C          0.71506       -2.26830       -1.98097
C          0.01870       -2.81101       -3.04263
C         -0.79700       -2.00533       -3.80995
C         -0.93388       -0.65483       -3.53042
C         -0.20624       -0.10308       -2.45898
Cl         2.14324        1.24219        2.59373
Cl        -0.89196        0.68853        3.46272
C         -1.82926        0.19883       -4.35976
C          1.11132        1.90692       -4.17356
H         -0.38928        5.09062       -1.19646
H         -1.45191        3.40753        0.26647
H          1.34905       -2.89153       -1.37499
H          0.10841       -3.86148       -3.26641
H          0.77435        4.36271       -3.23882
H         -1.33700       -2.42625       -4.64092
C         -2.86253       -3.60424       -0.71241
C         -1.81633       -3.39805        0.17987
C         -1.42638       -2.08897        0.43361
C         -2.05758       -1.03703       -0.18941
C         -3.09604       -1.26275       -1.05916
C         -3.52320       -2.55402       -1.33843
H         -3.18749       -4.60787       -0.90686
H         -0.64097       -1.89119        1.14131
H         -3.60232       -0.42150       -1.49967
C         -5.64075        2.49775        1.44241
C         -5.30807        2.40886        0.09598
C         -4.07003        1.87030       -0.23338
C         -3.21774        1.42871        0.74889
C         -3.56622        1.52109        2.07109
C         -4.78552        2.06347        2.44863
H         -6.59300        2.91805        1.70607
H         -3.75635        1.79424       -1.26069
H         -2.87131        1.17483        2.81424
C          4.01879       -3.48653        1.64292
C          3.13269       -2.78100        2.44726
C          2.35675       -1.79624        1.85338
C          2.47124       -1.51166        0.51339
C          3.37227       -2.20620       -0.25651
C          4.15318       -3.21744        0.28671
H          4.62305       -4.25572        2.08361
H          1.67237       -1.23538        2.46221
H          3.46749       -1.96432       -1.30055
C          4.38445        2.87587       -1.91781
C          3.60815        3.20502       -0.81405
C          2.74118        2.24001       -0.32012
C          2.64628        1.01105       -0.92203
C          3.40286        0.71178       -2.02868
C          4.29653        1.64106       -2.54839
H          5.08751        3.59908       -2.28743
H          2.13984        2.43713        0.54838
H          3.27451       -0.24687       -2.49930
Pd         0.26178        0.60349        1.54309
C          0.35733       -4.55308        0.71241
C         -1.16172       -4.55175        0.95597
C         -1.71637       -5.92305        0.52383
C         -1.44890       -4.36011        2.45621
H          0.57781       -4.72455       -0.34036
H          0.80333       -3.60450        1.00240
H          0.84592       -5.33934        1.28755
H         -1.22700       -6.72735        1.07309
H         -2.78584       -5.99531        0.72048
H         -1.54566       -6.09725       -0.53847
H         -1.00584       -5.16240        3.04575
H         -1.04691       -3.41411        2.81602
H         -2.52234       -4.35658        2.64428
C         -5.02537       -4.25741       -2.49124
C         -4.75946       -2.76321       -2.22583
C         -4.55626       -2.06158       -3.58001
C         -5.98583       -2.16022       -1.51573
H         -4.16763       -4.72727       -2.97241
H         -5.23884       -4.79045       -1.56502
H         -5.88548       -4.38605       -3.14827
H         -4.42077       -0.98844       -3.45413
H         -3.67931       -2.45897       -4.08896
H         -5.41828       -2.21146       -4.22987
H         -5.85382       -1.09262       -1.34250
H         -6.88844       -2.29399       -2.11165
H         -6.14425       -2.63731       -0.54880
C         -5.74957        2.65894       -2.39814
C         -6.29773        2.88830       -0.97527
C         -6.55829        4.39372       -0.78779
C         -7.61857        2.10898       -0.83420
H         -4.82383        3.21187       -2.55663
H         -5.55633        1.60147       -2.57840
H         -6.46595        2.99536       -3.14748
H         -7.24583        4.76825       -1.54598
H         -6.99354        4.60116        0.18912
H         -5.62881        4.95737       -0.86644
H         -8.33345        2.41159       -1.59919
H         -7.44638        1.03790       -0.93833
H         -8.07920        2.28073        0.13784
C         -4.07986        3.01955        4.65597
C         -5.13557        2.15573        3.94052
C         -5.14176        0.74008        4.54689
C         -6.52123        2.79095        4.16398
H         -4.04148        4.01840        4.22193
H         -4.31112        3.12007        5.71617
H         -3.08632        2.58063        4.57258
H         -4.16349        0.26859        4.46017
H         -5.40475        0.76940        5.60408
H         -5.86535        0.10549        4.03563
H         -7.30482        2.20002        3.69010
H         -6.75180        2.85114        5.22756
H         -6.55836        3.80284        3.76088
C          3.41588       -1.72420        4.69895
C          3.01287       -3.01450        3.96035
C          3.92653       -4.16003        4.43585
C          1.55827       -3.37480        4.31146
H          4.43715       -1.43972        4.44701
H          2.76357       -0.89422        4.42959
H          3.35766       -1.85739        5.77892
H          3.67213       -5.09596        3.93863
H          4.97422       -3.93513        4.23727
H          3.82190       -4.31743        5.50929
H          0.87558       -2.56843        4.04682
H          1.24701       -4.27235        3.77833
H          1.44987       -3.56283        5.37940
C          5.87569       -5.08733        0.14150
C          5.12604       -3.97994       -0.62343
C          6.15990       -2.99291       -1.19667
C          4.33652       -4.63150       -1.77494
H          5.17978       -5.81338        0.56156
H          6.55288       -5.62489       -0.52217
H          6.47257       -4.66976        0.95211
H          6.71566       -2.50845       -0.39411
H          6.87372       -3.50503       -1.84159
H          5.67800       -2.21351       -1.78534
H          3.57506       -5.30702       -1.38536
H          3.83651       -3.88245       -2.38791
H          4.99686       -5.20521       -2.42497
C          5.16806        4.76817        0.36906
C          3.73597        4.59026       -0.16594
C          2.74963        4.76045        1.00700
C          3.43234        5.67480       -1.21589
H          5.28650        5.73752        0.85289
H          5.40345        3.99457        1.09976
H          5.90110        4.70378       -0.43424
H          2.94714        4.03415        1.79509
H          2.83769        5.75403        1.44595
H          1.71941        4.63649        0.67397
H          4.13279        5.62871       -2.04881
H          2.42692        5.55047       -1.61679
H          3.49980        6.67073       -0.77850
C          5.20347        2.44963       -4.76228
C          5.21936        1.30551       -3.72952
C          4.77770        0.01143       -4.44242
C          6.64979        1.11391       -3.19610
H          5.58062        3.37899       -4.33821
H          5.82874        2.20463       -5.62075
H          4.19317        2.63111       -5.12665
H          4.85487       -0.85133       -3.78166
H          3.74779        0.08854       -4.79020
H          5.40734       -0.18638       -5.30980
H          7.33861        0.86429       -4.00294
H          7.01109        2.02130       -2.71285
H          6.68246        0.30923       -2.46173
H         -2.55126       -0.40135       -4.91464
H          2.11181        2.33954       -4.15102
H         -1.25678        0.77660       -5.08575
H         -2.38759        0.89929       -3.73640
H          0.61536        2.26065       -5.07856
H          1.22348        0.82472       -4.24794
