111
-148.55569549
P         -1.67337        2.80591        0.00732
P         -0.51995       -0.08622        0.52535
C         -1.64194        2.13406        1.69476
C         -1.20709        0.84288        1.90746
C         -0.50645        4.23185       -0.14591
C          0.60987        3.90297       -1.11480
C         -2.02200        2.91477        2.76782
H         -2.32456        3.93566        2.60195
C         -1.98945        2.38966        4.04824
H         -2.29008        2.99794        4.88565
C         -1.56641        1.09054        4.25544
H         -1.53548        0.68439        5.25306
C         -1.16324        0.31733        3.18154
H         -0.79580       -0.68626        3.32768
Pd        -1.30762        0.97960       -1.36353
Cl        -2.35662        2.05909       -3.02319
Cl        -0.83698       -0.87542       -2.54351
C         -1.41427        5.39341       -0.59923
C         -3.27016        3.64868       -0.40477
H          1.18750        3.03837       -0.78102
H          0.20551        3.66263       -2.10026
H          1.29753        4.74369       -1.23337
H         -1.30972        5.51669       -1.68586
H         -1.06851        6.34236       -0.16236
H         -3.46680        3.41963       -1.46006
C         -2.90951        5.13744       -0.25460
C         -4.42179        3.17411        0.45572
H         -0.11535        4.41436        0.86354
H         -3.11023        5.45027        0.77920
H         -3.56939        5.75574       -0.88237
H         -4.24376        3.39274        1.50889
H         -5.35691        3.66356        0.17423
H         -4.56376        2.09475        0.36509
C         -0.86758       -4.61725        0.72542
C          0.24332       -3.96723        1.32158
C          0.31515       -2.58631        1.24042
C         -0.69547       -1.85880        0.66796
C         -1.82351       -2.47332        0.19225
C         -1.95730       -3.85151        0.23704
O         -0.86965       -6.03003        0.57930
C          1.38398       -4.73387        2.00896
H          1.17863       -2.05683        1.60541
H         -2.59112       -1.85802       -0.24497
C         -3.24933       -4.49265       -0.29249
C          3.77974        1.25314       -0.14234
C          3.21926        0.24021       -0.96212
C          1.90708       -0.13604       -0.73276
C          1.19433        0.38710        0.31240
C          1.76196        1.29417        1.16795
C          3.06622        1.72305        0.99014
O          5.03098        1.83297       -0.48261
C          3.98692       -0.42146       -2.11630
H          1.40144       -0.81470       -1.39763
H          1.16153        1.68200        1.97156
C          3.67128        2.71338        1.99726
C          2.47640       -5.05155        0.97648
C          2.00711       -3.88340        3.13942
C          0.87091       -6.03242        2.65749
C         -3.56731       -5.80263        0.45105
C         -4.45469       -3.54962       -0.07606
C         -3.10040       -4.75874       -1.79832
C         -0.28482       -6.48603       -0.63436
H          3.30510       -5.58857        1.43722
H          2.08784       -5.66395        0.16635
H          2.87018       -4.13465        0.53869
H          1.23910       -3.53175        3.82787
H          2.72697       -4.46837        3.71147
H          2.53915       -3.01786        2.74742
H          1.66758       -6.54102        3.19983
H          0.06562       -5.81836        3.35938
H          0.48757       -6.72448        1.91203
H         -2.79982       -6.55316        0.27998
H         -3.63060       -5.62862        1.52468
H         -4.51679       -6.22142        0.11851
H         -4.51823       -3.23463        0.96516
H         -4.38848       -2.66028       -0.70091
H         -5.38820       -4.05037       -0.33182
H         -2.27696       -5.43985       -1.99884
H         -4.00885       -5.19802       -2.20949
H         -2.90016       -3.83138       -2.33460
H          0.05581       -5.64040       -1.23329
H          0.55982       -7.13788       -0.41194
H         -1.01777       -7.06063       -1.20044
C          4.93345        2.94662       -1.36202
C          3.51003       -1.87841       -2.31814
C          3.72879        0.36355       -3.41136
C          5.49623       -0.48228       -1.82031
C          3.39546        4.15060        1.52997
C          3.04071        2.52372        3.39587
C          5.18601        2.48696        2.15188
H          3.55978       -2.43481       -1.38266
H          2.48681       -1.92166       -2.68799
H          4.13527       -2.39279       -3.04750
H          4.25085       -0.08967       -4.25358
H          2.66427        0.38204       -3.64413
H          4.06501        1.39382       -3.32203
H          6.02984       -1.00807       -2.61168
H          5.92606        0.51274       -1.73914
H          5.68200       -1.00333       -0.88168
H          3.82726        4.33735        0.54987
H          2.32386        4.33404        1.46086
H          3.81632        4.87505        2.22670
H          3.55699        3.13170        4.13844
H          1.99374        2.82351        3.41036
H          3.10475        1.48293        3.71229
H          5.39225        1.45771        2.44359
H          5.60529        3.14572        2.91196
H          5.71304        2.68174        1.22112
H          3.88905        3.15988       -1.59294
H          5.38889        3.82035       -0.89615
H          5.47279        2.73385       -2.28479
