171
-217.83903495
P         -1.65432        0.76813        0.31560
P          1.51651       -0.22864       -0.33987
C         -0.93270        1.83042       -0.95207
C          0.54869       -0.92752       -1.68450
C         -0.32516        1.36370       -2.11207
C          0.29940        2.29359       -2.96450
C          0.26715        3.64046       -2.64451
C         -0.34737        4.08440       -1.49393
C         -0.93691        3.17044       -0.64268
C          0.66361       -2.26012       -1.99347
C         -0.07025       -2.79633       -3.03294
C         -0.92037       -1.98707       -3.75796
C         -1.05339       -0.63995       -3.46117
C         -0.28343       -0.09076       -2.41770
Cl         2.29579        1.29115        2.45046
Cl        -0.72959        0.81783        3.46144
C         -1.98356        0.20851       -4.25577
C          1.00809        1.86738       -4.20107
H         -0.35883        5.13484       -1.25308
H         -1.39748        3.49846        0.27774
H          1.33714       -2.88003       -1.42693
H          0.01973       -3.84280       -3.27455
H          0.74196        4.34470       -3.30688
H         -1.48587       -2.40026       -4.57562
C         -3.00645       -3.43621       -0.70313
C         -3.64689       -2.35042       -1.28573
C         -3.17526       -1.08045       -0.97952
C         -2.11674       -0.91428       -0.12061
C         -1.50870       -2.00031        0.46479
C         -1.94555       -3.28898        0.18330
H         -3.36340       -4.42131       -0.93723
H         -3.64281       -0.20655       -1.39748
H         -0.69854       -1.84435        1.15484
C         -5.51454        2.73036        1.65059
C         -4.66360        2.22988        2.62800
C         -3.47327        1.64852        2.21359
C         -3.15494        1.57987        0.88154
C         -4.00497        2.08628       -0.07151
C         -5.20935        2.67326        0.29659
H         -6.44357        3.17776        1.95299
H         -2.77223        1.25555        2.92599
H         -3.71556        2.02354       -1.10684
C          3.79462       -3.59272        1.73769
C          4.05233       -3.30033        0.40495
C          3.35281       -2.25074       -0.17614
C          2.40184       -1.55321        0.52867
C          2.15802       -1.86971        1.84529
C          2.86108       -2.88366        2.48061
H          4.33742       -4.38422        2.21905
H          3.55640       -1.97437       -1.19535
H          1.42287       -1.31531        2.39620
C          4.56728        2.54434       -2.22898
C          4.33068        1.30241       -2.80813
C          3.38458        0.47924       -2.20973
C          2.73265        0.87314       -1.06599
C          2.98778        2.09782       -0.50508
C          3.90456        2.96525       -1.08150
H          5.29097        3.19682       -2.67777
H          3.14479       -0.47421       -2.64908
H          2.47999        2.37292        0.40194
Pd         0.35242        0.68037        1.50458
C         -5.48709       -1.23587       -2.64664
C         -4.86705       -2.57213       -2.19165
C         -5.94011       -3.35881       -1.41511
C         -4.44204       -3.36802       -3.43757
H         -6.35908       -1.40830       -3.27731
H         -5.81052       -0.64388       -1.79061
H         -4.77561       -0.64708       -3.22402
H         -6.83374       -3.50257       -2.02225
H         -5.57736       -4.34280       -1.12078
H         -6.22922       -2.82375       -0.51069
H         -3.69629       -2.81763       -4.00881
H         -4.01169       -4.33080       -3.16426
H         -5.29434       -3.55493       -4.09061
C         -1.97687       -5.81759        0.50575
C         -1.30690       -4.48766        0.90236
C         -1.46718       -4.29860        2.42196
C          0.18576       -4.57563        0.54330
H         -3.03675       -5.81452        0.75958
H         -1.87585       -6.00433       -0.56326
H         -1.51494       -6.65378        1.03061
H         -2.51954       -4.20144        2.68797
H         -1.05949       -5.14900        2.96770
H         -0.95356       -3.40155        2.76361
H          0.31491       -4.73674       -0.52626
H          0.70798       -3.66066        0.81355
H          0.66750       -5.40138        1.06637
C         -6.37268        1.57045        4.34054
C         -5.05338        2.32990        4.10964
C         -5.23202        3.81135        4.48911
C         -3.97249        1.71952        5.02386
H         -6.66525        1.60674        5.38978
H         -7.18438        1.99840        3.75341
H         -6.26876        0.52385        4.05482
H         -6.02396        4.27766        3.90422
H         -5.49014        3.91586        5.54279
H         -4.31195        4.36737        4.31001
H         -4.26159        1.79863        6.07166
H         -3.82164        0.66325        4.80230
H         -3.02015        2.23573        4.90480
C         -6.44196        4.72434       -0.45626
C         -6.19530        3.23105       -0.73928
C         -7.52218        2.45611       -0.64316
C         -5.65081        3.09094       -2.17495
H         -5.50667        5.28249       -0.49544
H         -7.12241        5.15346       -1.19156
H         -6.88013        4.87440        0.52969
H         -7.36077        1.39319       -0.82189
H         -7.97292        2.56442        0.34269
H         -8.23952        2.81738       -1.37985
H         -4.71126        3.63071       -2.29251
H         -5.48316        2.04519       -2.43169
H         -6.35769        3.49753       -2.89807
C          6.28786       -3.12640       -0.69987
C          5.09775       -4.06101       -0.42223
C          4.46987       -4.51578       -1.75477
C          5.61082       -5.31102        0.31873
H          6.75464       -2.81000        0.23272
H          7.04444       -3.62399       -1.30627
H          5.96607       -2.23092       -1.22923
H          3.59105       -5.13468       -1.57423
H          4.16235       -3.66684       -2.36380
H          5.17961       -5.10013       -2.34008
H          4.78853       -5.98106        0.56952
H          6.31457       -5.86620       -0.30139
H          6.12954       -5.04005        1.23795
C          3.98776       -3.02584        4.71476
C          2.65431       -3.21091        3.96681
C          2.17792       -4.66737        4.10780
C          1.60626       -2.28378        4.61535
H          4.75441       -3.69847        4.33218
H          4.35167       -2.00472        4.60227
H          3.86923       -3.22694        5.77930
H          2.91420       -5.36530        3.71093
H          2.00574       -4.92229        5.15332
H          1.24626       -4.82126        3.56559
H          0.63418       -2.38874        4.13582
H          1.47872       -2.52266        5.67091
H          1.91129       -1.23956        4.54866
C          4.13209        0.45333       -5.17429
C          5.10831        0.79589       -4.03389
C          5.89268       -0.46898       -3.63900
C          6.10727        1.84897       -4.55080
H          4.66807        0.06038       -6.03814
H          3.40669       -0.29822       -4.86523
H          3.58728        1.33919       -5.49753
H          6.56855       -0.25966       -2.81010
H          5.21914       -1.26805       -3.33197
H          6.48691       -0.83792       -4.47480
H          6.84598        2.09703       -3.78888
H          6.64604        1.47572       -5.42170
H          5.59415        2.76353       -4.84771
C          4.70497        4.09657        1.00528
C          4.16380        4.32518       -0.41839
C          2.84412        5.11563       -0.34894
C          5.19105        5.15951       -1.20696
H          4.91520        5.04440        1.50022
H          3.98788        3.55210        1.61853
H          5.62745        3.51711        0.97767
H          2.43808        5.27249       -1.34781
H          2.09490        4.58546        0.23786
H          2.99708        6.09192        0.11044
H          4.84465        5.34915       -2.22280
H          5.35375        6.12507       -0.72818
H          6.15378        4.65131       -1.25788
H         -1.47983        0.62948       -5.12666
H          1.17589        0.78998       -4.21597
H         -2.37191        1.03419       -3.65727
H         -2.83634       -0.37025       -4.61302
H          1.98087        2.35621       -4.26834
H          0.43678        2.13433       -5.09123
