111
-148.55586475
P         -1.60913        2.82603       -0.05398
P         -0.53574       -0.09658        0.49598
C         -1.65644        2.14383        1.62991
C         -1.25751        0.84268        1.85334
C         -0.37999        4.20442       -0.15450
C          0.75736        3.83953       -1.08513
C         -2.05891        2.92832        2.69203
H         -2.33013        3.95704        2.52067
C         -2.08684        2.39745        3.97019
H         -2.40541        3.00901        4.79853
C         -1.70081        1.08846        4.18709
H         -1.71698        0.67773        5.18318
C         -1.27364        0.31111        3.12557
H         -0.93332       -0.70076        3.28058
Pd        -1.27939        0.97827       -1.40586
Cl        -2.31313        2.05209       -3.07771
Cl        -0.81412       -0.89645       -2.55802
C         -1.22380        5.40533       -0.62827
C         -3.15497        3.73799       -0.51119
H          0.38000        3.61462       -2.08481
H          1.47673        4.65667       -1.17674
H          1.29408        2.95603       -0.73355
H         -1.07879        5.53081       -1.71000
H         -0.85378        6.33647       -0.17331
H         -3.32293        3.52768       -1.57525
C         -2.73871        5.20912       -0.33406
C         -4.35630        3.30399        0.30137
H         -0.01759        4.36429        0.86934
H         -2.95968        5.52080        0.69593
H         -3.35184        5.85989       -0.97625
H         -4.20957        3.50582        1.36258
H         -5.25935        3.83409       -0.00962
H         -4.53893        2.23231        0.19428
C         -0.88742       -4.62600        0.72421
C          0.27490       -3.98097        1.21891
C          0.34500       -2.60060        1.13109
C         -0.70751       -1.86854        0.64695
C         -1.87464       -2.47769        0.26896
C         -2.01106       -3.85521        0.32922
O         -0.91097       -6.03954        0.58737
C          1.46944       -4.75221        1.80166
H          1.23832       -2.07474        1.42160
H         -2.67427       -1.85858       -0.10027
C         -3.34867       -4.49091       -0.08046
C          3.76074        1.29566       -0.07446
C          3.19657        0.35321       -0.97506
C          1.88778       -0.04616       -0.76743
C          1.18121        0.38266        0.32394
C          1.76098        1.19525        1.26213
C          3.06497        1.63717        1.11598
O          4.96863        1.96028       -0.40870
C          3.94394       -0.25056       -2.17486
H          1.38224       -0.66750       -1.48712
H          1.17341        1.50408        2.10934
C          3.66948        2.47371        2.25547
C          2.45720       -5.08582        0.67319
C          2.20397       -3.89967        2.86163
C          1.00906       -6.04180        2.50514
C         -4.52463       -3.53872        0.23500
C         -3.33490       -4.76743       -1.59168
C         -3.60803       -5.79400        0.69724
C         -0.44191       -6.50684       -0.67140
H          3.32361       -5.62282        1.05840
H          1.99076       -5.70397       -0.08999
H          2.81135       -4.17535        0.19038
H          1.50766       -3.53591        3.61681
H          2.96949       -4.48743        3.36774
H          2.70443       -3.04212        2.41424
H          1.84926       -6.55461        2.97265
H          0.27632       -5.81580        3.27909
H          0.55021       -6.73464        1.80438
H         -4.49463       -3.21739        1.27581
H         -4.50815       -2.65343       -0.39880
H         -5.48001       -4.03477        0.06529
H         -3.17772       -3.84479       -2.14996
H         -2.53624       -5.45475       -1.85967
H         -4.27855       -5.20379       -1.91793
H         -3.57552       -5.61271        1.77104
H         -4.58568       -6.20845        0.45249
H         -2.86325       -6.55081        0.46461
H         -0.14834       -5.66740       -1.30306
H          0.41290       -7.16617       -0.52183
H         -1.22795       -7.07691       -1.16630
C          4.75355        3.14434       -1.15932
C          3.38771        0.35043       -3.47670
C          5.46139       -0.00939       -2.10283
C          3.72875       -1.78039       -2.19077
C          5.19943        2.59339        2.14647
C          3.03980        3.87666        2.24754
C          3.36557        1.79209        3.60815
H          2.31931        0.15799       -3.56991
H          3.53405        1.42846       -3.50636
H          3.88288       -0.07967       -4.34679
H          5.98022       -0.52761       -2.90894
H          5.69658        1.04888       -2.18728
H          5.86260       -0.36613       -1.15486
H          4.30048       -2.24503       -2.99361
H          4.05099       -2.22284       -1.24862
H          2.68286       -2.04088       -2.34427
H          5.61615        3.10607        3.01311
H          5.65807        1.60735        2.08133
H          5.48973        3.15483        1.26174
H          3.44454        4.48976        3.05229
H          3.23050        4.38902        1.30652
H          1.96012        3.81889        2.38150
H          3.84749        2.32411        4.42802
H          3.73162        0.76575        3.61196
H          2.29786        1.76970        3.82002
H          5.71601        3.56275       -1.45437
H          4.16847        2.92182       -2.05027
H          4.21374        3.87519       -0.55969
