111
-148.55568619
P         -2.56513        2.08822        0.72054
P          0.14434        0.45509        0.44848
C         -1.48685        1.88298        2.16301
C         -0.29375        1.20537        2.03121
C         -3.39174        3.74349        0.69221
C         -2.78429        4.64175       -0.36312
C         -1.86204        2.38406        3.39302
H         -2.80548        2.89486        3.49516
C         -1.03351        2.21231        4.48859
H         -1.32536        2.60393        5.44937
C          0.16367        1.53599        4.35333
H          0.80693        1.39890        5.20692
C          0.53190        1.02583        3.12149
H          1.45419        0.47868        3.00330
Pd        -1.29433        1.43820       -1.08458
Cl        -2.97044        2.03550       -2.44631
Cl         0.12328        0.73581       -2.68367
C         -4.87085        3.38419        0.45541
C         -4.04515        0.97825        0.74324
H         -2.88525        4.19759       -1.35455
H         -3.27502        5.61756       -0.38775
H         -1.71850        4.80157       -0.18296
H         -5.07566        3.43029       -0.62311
H         -5.52770        4.13934        0.91335
H         -4.11462        0.54418       -0.26330
C         -5.20712        1.95998        0.98322
C         -3.90764       -0.10786        1.78798
H         -3.25866        4.17728        1.69135
H         -5.41279        2.00777        2.06148
H         -6.13145        1.57861        0.52316
H         -3.04314       -0.74312        1.58472
H         -3.77066        0.32444        2.78089
H         -4.79433       -0.74509        1.82168
C         -1.23090       -3.88862        0.34338
C         -1.09587       -3.22730        1.59138
C         -0.65411       -1.91472        1.59476
C         -0.42606       -1.24387        0.42222
C         -0.66157       -1.84560       -0.78511
C         -1.09901       -3.15503       -0.86288
O         -1.46103       -5.28955        0.30328
C         -1.39354       -3.92159        2.92967
H         -0.47784       -1.39597        2.52027
H         -0.48809       -1.26909       -1.67655
C         -1.39200       -3.75715       -2.24544
C          4.55937        0.73803       -0.64746
C          3.79680       -0.39428       -1.03661
C          2.45875       -0.43148       -0.68514
C          1.89102        0.55937        0.07175
C          2.64924        1.59926        0.54330
C          3.99975        1.69120        0.24567
O          5.84307        0.95656       -1.21007
C          4.35753       -1.58477       -1.83244
H          1.83376       -1.24029       -1.02158
H          2.17131        2.34859        1.15117
C          4.81206        2.80767        0.92435
C         -1.85246       -2.89505        3.99058
C         -2.53098       -4.94787        2.77806
C         -0.11991       -4.61366        3.43793
C         -2.49331       -4.82937       -2.16359
C         -1.89874       -2.66528       -3.21647
C         -0.10102       -4.36217       -2.81800
C         -0.27261       -6.06946        0.25974
H         -2.68970       -2.30335        3.62206
H         -2.17601       -3.39912        4.90098
H         -1.04853       -2.21599        4.27064
H         -2.78625       -5.39485        3.73854
H         -3.42534       -4.47258        2.37645
H         -2.25048       -5.75395        2.10454
H          0.22703       -5.36663        2.73450
H          0.68388       -3.89020        3.57269
H         -0.29723       -5.10386        4.39487
H         -2.74467       -5.20950       -3.15342
H         -2.18039       -5.67501       -1.55655
H         -3.39805       -4.41617       -1.71893
H         -2.23402       -3.10684       -4.15451
H         -2.73765       -2.12060       -2.78404
H         -1.11704       -1.94855       -3.46335
H          0.28968       -5.14341       -2.17017
H         -0.27597       -4.79593       -3.80216
H          0.67026       -3.59881       -2.91827
H         -0.25007       -6.65329       -0.66020
H          0.60708       -5.42595        0.30315
H         -0.25957       -6.76104        1.10205
C          5.79554        1.71819       -2.40512
C          5.89553       -1.61047       -1.84287
C          3.88763       -2.90635       -1.18339
C          3.83225       -1.52107       -3.27654
C          4.45828        4.16083        0.28610
C          4.46360        2.85220        2.42907
C          6.32921        2.57166        0.82294
H          6.30069       -0.75437       -2.37697
H          6.28708       -1.58583       -0.82655
H          6.27012       -2.51013       -2.33058
H          4.33470       -3.76491       -1.68387
H          4.17527       -2.94223       -0.13307
H          2.80707       -3.02632       -1.24071
H          4.18978       -2.36936       -3.85956
H          2.74288       -1.53526       -3.29546
H          4.15907       -0.60997       -3.77386
H          5.00247        4.97260        0.76814
H          4.70682        4.17374       -0.77326
H          3.39291        4.36888        0.37980
H          4.63027        1.87947        2.89102
H          5.08301        3.58201        2.94982
H          3.42468        3.13104        2.59688
H          6.59155        1.58726        1.20898
H          6.88209        3.31880        1.39188
H          6.66899        2.62650       -0.20854
H          5.18790        1.20688       -3.14993
H          5.35862        2.69568       -2.20851
H          6.80723        1.84628       -2.79059
