111
-148.55417448
P         -1.42460        2.60519        1.24483
P         -0.29357       -0.27516        0.55546
C         -0.88810        1.49808        2.57994
C         -0.46323        0.22026        2.28218
C         -0.31355        4.07788        1.12374
C          0.49095        4.04108       -0.15844
C         -0.87684        1.93858        3.88788
H         -1.17241        2.95086        4.11042
C         -0.46424        1.08730        4.89838
H         -0.45946        1.42959        5.92036
C         -0.05260       -0.19716        4.59844
H          0.27384       -0.85784        5.38464
C         -0.04177       -0.62859        3.28412
H          0.30963       -1.61601        3.02861
Pd        -1.61267        1.22815       -0.59979
Cl        -2.72073        2.92020       -1.57102
Cl        -1.67440       -0.20696       -2.32612
C         -1.28930        5.26681        1.22763
C         -3.04346        3.44129        1.57875
H          1.12784        3.15543       -0.20489
H         -0.16972        4.01333       -1.02726
H          1.13088        4.92126       -0.25472
H         -1.51888        5.62187        0.21358
H         -0.80601        6.11601        1.73400
H         -3.57750        3.44662        0.61945
C         -2.61244        4.87289        1.94507
C         -3.86688        2.72829        2.63047
H          0.34262        4.03789        2.00296
H         -2.47522        4.93562        3.03330
H         -3.41607        5.58668        1.70764
H         -3.35273        2.71469        3.59173
H         -4.83002        3.22063        2.78281
H         -4.05785        1.69084        2.34654
C         -0.92226       -4.72713       -0.17820
C         -1.79374       -4.02412        0.69224
C         -1.55651       -2.67674        0.91274
C         -0.54066       -2.02268        0.26533
C          0.23949       -2.67485       -0.65300
C          0.04767       -4.01767       -0.93113
O         -1.00225       -6.14206       -0.27528
C         -2.96776       -4.70799        1.41058
H         -2.16306       -2.11496        1.60229
H          1.00657       -2.11508       -1.15800
C          0.88722       -4.67949       -2.03534
C          3.61353        1.46684       -1.02071
C          3.35257        1.45555        0.37336
C          2.18447        0.85978        0.81788
C          1.26857        0.35253       -0.06649
C          1.46551        0.46362       -1.41815
C          2.61059        1.04641       -1.93079
O          4.88350        1.88186       -1.50268
C          4.31082        2.08373        1.39733
H          1.96475        0.79919        1.86913
H          0.67927        0.12573       -2.06991
C          2.73929        1.23433       -3.45068
C         -4.10354       -3.69724        1.68832
C         -3.56887       -5.82977        0.54410
C         -2.48087       -5.27723        2.75174
C          1.27035       -3.64564       -3.11920
C          2.17678       -5.24958       -1.42611
C          0.09274       -5.79429       -2.73954
C         -0.16029       -6.83654        0.63619
H         -4.98554       -4.20432        2.07889
H         -3.80951       -2.95364        2.42761
H         -4.39291       -3.17886        0.77453
H         -3.87478       -5.44181       -0.42692
H         -2.85027       -6.62743        0.37298
H         -4.44211       -6.27079        1.02409
H         -3.29605       -5.76000        3.29014
H         -1.69331       -6.01237        2.60535
H         -2.08086       -4.48480        3.38397
H          1.97718       -2.90996       -2.73897
H          1.74390       -4.13362       -3.97076
H          0.38804       -3.11908       -3.48235
H          1.95832       -5.99984       -0.67021
H          2.79770       -5.71420       -2.19167
H          2.75983       -4.46072       -0.95136
H         -0.14880       -6.60300       -2.05426
H         -0.84304       -5.40408       -3.13838
H          0.66229       -6.22048       -3.56501
H         -0.76582       -7.47719        1.27702
H          0.53410       -7.46891        0.08330
H          0.39948       -6.13088        1.25132
C          5.82627        0.82624       -1.63689
C          5.02225        3.31305        0.80338
C          3.53738        2.57082        2.64430
C          5.34284        1.03564        1.83889
C          1.34576        1.40056       -4.09992
C          3.54259        2.50495       -3.78258
C          3.42063        0.00141       -4.06243
H          5.65320        3.79847        1.54750
H          5.65626        3.03695       -0.03566
H          4.29500        4.04214        0.44740
H          2.71592        3.22716        2.35897
H          3.12971        1.73938        3.21744
H          4.19314        3.12823        3.31273
H          4.84877        0.17375        2.28679
H          5.92846        0.67970        0.99474
H          6.03090        1.45099        2.57479
H          0.76633        0.47971       -4.05343
H          0.77794        2.18806       -3.60492
H          1.43832        1.66634       -5.15257
H          3.08839        3.37840       -3.31577
H          4.56696        2.43081       -3.42586
H          3.57971        2.67560       -4.85818
H          4.41133       -0.15163       -3.64131
H          3.52594        0.10882       -5.14169
H          2.83558       -0.89690       -3.86903
H          6.15079        0.75590       -2.67492
H          6.70022        1.03725       -1.02086
H          5.38333       -0.12158       -1.32838
