171
-217.83779854
P         -1.47947        0.19618       -0.39846
P          1.68991       -0.71323        0.40423
C         -0.45551        1.03974       -1.61828
C          1.06998       -1.70263       -0.97620
C          0.46199        0.29473       -2.34812
C          1.28309        0.94819       -3.28693
C          1.11677        2.30827       -3.49264
C          0.18725        3.02889       -2.77177
C         -0.59590        2.38883       -1.83192
C          1.08395       -3.05971       -0.75477
C          0.57986       -3.92667       -1.70467
C          0.04444       -3.42105       -2.86950
C          0.00613       -2.05722       -3.10568
C          0.53750       -1.17471       -2.14646
Cl         0.72032       -1.00397        3.39047
Cl        -2.30997       -1.57460        2.31706
C         -0.61412       -1.56144       -4.36492
C          2.30330        0.19563       -4.06753
H          0.07444        4.08775       -2.93823
H         -1.32487        2.94324       -1.26717
H          1.48513       -3.43860        0.17387
H          0.59784       -4.99011       -1.53068
H          1.71992        2.80206       -4.23519
H         -0.36379       -4.08956       -3.60879
C         -4.26141       -2.62455       -2.59870
C         -3.68384       -3.05383       -1.40956
C         -2.84258       -2.17487       -0.74320
C         -2.57419       -0.93358       -1.25952
C         -3.13900       -0.53103       -2.44512
C         -4.00597       -1.36910       -3.13706
H         -4.94312       -3.27340       -3.11522
H         -2.41396       -2.45041        0.20348
H         -2.88629        0.43995       -2.83416
C         -4.16815        3.28663        1.59720
C         -3.31499        2.55000        2.40817
C         -2.48773        1.61361        1.80339
C         -2.52733        1.40812        0.44430
C         -3.40024        2.12929       -0.33336
C         -4.22828        3.09451        0.22303
H         -4.80387        4.02043        2.05580
H         -1.81708        1.03116        2.40551
H         -3.43436        1.94488       -1.39305
C          5.60957       -2.62144        1.65258
C          4.75292       -2.17333        2.65085
C          3.54631       -1.60591        2.26439
C          3.21950       -1.49312        0.93755
C          4.07976       -1.93814       -0.03629
C          5.29491       -2.51870        0.30253
H          6.54391       -3.06391        1.94271
H          2.83880       -1.26109        2.99479
H          3.79582       -1.83762       -1.07103
C          2.80052        3.65236       -0.11893
C          3.55589        2.67295       -0.75064
C          3.16029        1.34980       -0.59787
C          2.05865        1.03196        0.15811
C          1.33436        2.01485        0.79250
C          1.69655        3.35008        0.66964
H          3.10011        4.67697       -0.23319
H          3.72020        0.55161       -1.05318
H          0.49009        1.74290        1.40032
Pd        -0.40013       -0.77349        1.46215
C         -4.89273       -5.27736       -1.68455
C         -3.95400       -4.43583       -0.79937
C         -4.60900       -4.25892        0.58323
C         -2.61984       -5.18996       -0.64728
H         -5.06325       -6.25910       -1.24286
H         -5.86314       -4.79447       -1.79781
H         -4.46408       -5.43077       -2.67480
H         -3.95673       -3.71250        1.26342
H         -5.54260       -3.70333        0.49835
H         -4.82978       -5.22467        1.03725
H         -2.13364       -5.30822       -1.61528
H         -1.93429       -4.65400        0.00817
H         -2.77756       -6.18204       -0.22483
C         -4.55783       -1.96571       -5.52582
C         -4.73097       -0.91437       -4.41275
C         -4.18054        0.43005       -4.92938
C         -6.22733       -0.74344       -4.09519
H         -5.05567       -1.64594       -6.44116
H         -3.50450       -2.11955       -5.75587
H         -4.98303       -2.92646       -5.23923
H         -4.67930        0.72249       -5.85329
H         -4.34225        1.22784       -4.20494
H         -3.11278        0.36276       -5.13642
H         -6.66738       -1.68313       -3.76268
H         -6.37152       -0.00889       -3.30314
H         -6.77786       -0.40656       -4.97338
C         -2.32992        1.82956        4.64422
C         -3.32337        2.76715        3.92835
C         -4.73501        2.47904        4.47208
C         -2.93452        4.22358        4.23835
H         -2.35384        1.99057        5.72175
H         -2.57651        0.78369        4.46206
H         -1.30868        2.00539        4.30895
H         -5.03484        1.45772        4.23804
H         -4.76878        2.60146        5.55450
H         -5.47283        3.15237        4.03755
H         -1.94517        4.44966        3.84343
H         -3.63962        4.92527        3.79433
H         -2.91742        4.40258        5.31326
C         -5.99160        4.92601        0.09684
C         -5.15737        3.90088       -0.69450
C         -6.11876        2.93765       -1.41573
C         -4.30719        4.65819       -1.73225
H         -6.62356        4.43172        0.83445
H         -5.34928        5.63937        0.61298
H         -6.64315        5.49112       -0.56961
H         -6.71165        2.37457       -0.69528
H         -6.80347        3.48262       -2.06529
H         -5.57460        2.22240       -2.03110
H         -3.74037        3.97023       -2.35867
H         -4.93601        5.26215       -2.38611
H         -3.59758        5.32158       -1.23795
C          5.36282       -3.80870        4.45209
C          5.15191       -2.31869        4.12647
C          4.06320       -1.76405        5.06662
C          6.45630       -1.54065        4.37930
H          4.45390       -4.37714        4.25590
H          6.16225       -4.23726        3.84883
H          5.62686       -3.94528        5.50063
H          4.36016       -1.87268        6.10958
H          3.88807       -0.70435        4.88232
H          3.12182       -2.29702        4.93486
H          7.27409       -1.93049        3.77436
H          6.32949       -0.48696        4.13140
H          6.75424       -1.60803        5.42549
C          6.60971       -1.84190       -1.72255
C          6.22253       -3.02203       -0.81230
C          5.48443       -4.09210       -1.63872
C          7.51184       -3.64547       -0.24432
H          7.11528       -1.06472       -1.14985
H          7.28118       -2.16590       -2.51748
H          5.73141       -1.39781       -2.18967
H          4.58905       -3.68407       -2.10648
H          6.12380       -4.48451       -2.42927
H          5.18002       -4.92505       -1.00529
H          8.15654       -3.99991       -1.04853
H          8.07821       -2.91622        0.33466
H          7.28612       -4.49737        0.39685
C          4.41894        3.96429       -2.72316
C          4.81423        3.06625       -1.53828
C          5.55234        1.82808       -2.08297
C          5.77691        3.82920       -0.60854
H          3.90500        4.86330       -2.38488
H          5.29795        4.27348       -3.28845
H          3.75386        3.43316       -3.40194
H          5.86397        1.17272       -1.27006
H          4.91920        1.25911       -2.76247
H          6.44656        2.12046       -2.63320
H          6.04270        3.21826        0.25399
H          6.69615        4.09337       -1.13109
H          5.32784        4.75081       -0.24050
C          1.56342        5.82000        1.28431
C          0.92308        4.42769        1.44628
C          0.92632        4.06590        2.94348
C         -0.52427        4.49908        0.93308
H          2.59413        5.82113        1.63853
H          1.55367        6.13821        0.24200
H          1.01553        6.56600        1.85996
H          0.41782        3.12012        3.12308
H          1.94695        3.97142        3.31361
H          0.42470        4.83315        3.53249
H         -1.10131        5.23958        1.48644
H         -0.54599        4.77681       -0.12008
H         -1.02367        3.53894        1.04130
H          0.00993       -1.79889       -5.22766
H          2.69470       -0.64630       -3.49417
H         -0.76409       -0.48157       -4.34243
H         -1.58851       -2.02575       -4.51837
H          3.14636        0.83496       -4.33309
H          1.87738       -0.19414       -4.99280
