87
-129.17861386
P         -1.83540       -0.35253        0.23003
P          1.45897        0.25713       -0.08845
C         -1.53571        1.10510       -0.80217
C          1.06072       -0.56138       -1.63873
C         -0.71404        1.15007       -1.92614
C         -0.51119        2.38728       -2.56754
C         -1.14556        3.51757       -2.08184
C         -1.95452        3.45541       -0.96869
C         -2.14009        2.24585       -0.32751
C          1.80046       -1.63451       -2.07096
C          1.49644       -2.24196       -3.27337
C          0.44860       -1.76757       -4.03550
C         -0.30915       -0.68566       -3.61741
C          0.01138       -0.05841       -2.39698
Cl         1.44952        1.11199        3.00629
Cl        -1.23429       -0.68058        3.44354
H         -2.43223        4.34565       -0.59380
H         -2.75428        2.18728        0.55895
H          2.62193       -1.99211       -1.47310
H          2.07315       -3.08692       -3.61218
H         -0.98783        4.45914       -2.58005
H          0.20450       -2.24440       -4.96959
C         -0.86297       -4.47748       -1.41835
C         -0.37473       -4.10307       -0.17451
C         -0.69798       -2.84131        0.30988
C         -1.46868       -1.98016       -0.43774
C         -1.98032       -2.37490       -1.65085
C         -1.67163       -3.62757       -2.14701
H         -0.61075       -5.44893       -1.80822
C          0.49061       -5.02636        0.60930
H         -0.37941       -2.54617        1.29545
H         -2.60526       -1.69723       -2.20937
H         -2.05398       -3.93549       -3.10635
C         -6.26468       -0.30495        1.27757
C         -5.33719       -0.49635        2.28241
C         -3.98989       -0.50744        1.98102
C         -3.57694       -0.33082        0.68273
C         -4.49880       -0.14153       -0.32147
C         -5.85977       -0.11654       -0.03676
H         -7.31652       -0.30092        1.50775
H         -5.66284       -0.63762        3.29999
H         -3.25243       -0.64988        2.75193
H         -4.15966       -0.00447       -1.33532
C         -6.85798        0.06687       -1.12533
C          4.85338       -1.94526        2.00846
C          3.69735       -2.62352        1.67679
C          2.66865       -1.95868        1.03790
C          2.80462       -0.62648        0.72686
C          3.95426        0.05165        1.05888
C          4.99510       -0.59644        1.71309
H          5.65768       -2.46068        2.50522
H          3.59545       -3.66901        1.91767
H          1.76149       -2.47390        0.77215
H          4.04312        1.09736        0.81805
C          6.24449        0.13568        2.05646
C          2.79061        4.49682       -1.03643
C          1.96125        4.27423        0.04506
C          1.56117        2.98821        0.35312
C          1.98853        1.93855       -0.42495
C          2.82239        2.15443       -1.49747
C          3.23046        3.44266       -1.82510
H          3.10749        5.49754       -1.27609
H          1.62893        5.10089        0.65126
H          0.93032        2.79641        1.20519
H          3.14944        1.31688       -2.09185
C          4.14169        3.68031       -2.97736
Pd        -0.04998        0.07107        1.70041
C          0.37849        2.51430       -3.75581
C         -1.44347       -0.21484       -4.45911
H          1.05089        1.66072       -3.84632
H         -0.20615        2.58333       -4.67388
H          0.99625        3.41055       -3.68401
H         -1.07971        0.29163       -5.35398
H         -2.06504       -1.05293       -4.77773
H         -2.08337        0.48039       -3.91436
H          1.49964       -5.05641        0.19547
H          0.56385       -4.71215        1.65148
H          0.09085       -6.04128        0.59672
H         -6.45067        0.67634       -1.93342
H         -7.15365       -0.89540       -1.54565
H         -7.75625        0.56408       -0.75647
H          6.03581        1.18291        2.28017
H          6.72818       -0.29921        2.93224
H          6.95338        0.10269        1.22794
H          3.92250        4.63299       -3.46175
H          5.18229        3.69937       -2.65055
H          4.03931        2.89587       -3.72873
