111
-148.55722116
P         -2.61172        1.97906        0.96219
P          0.12322        0.46653        0.49176
C         -1.52449        1.63122        2.37141
C         -0.31102        1.01560        2.15273
C         -3.48902        3.59790        1.14753
C         -2.88799        4.66064        0.25371
C         -1.90421        1.96566        3.65560
H         -2.86271        2.42802        3.82501
C         -1.05969        1.68951        4.71720
H         -1.35537        1.95025        5.72031
C          0.15916        1.07792        4.49384
H          0.81485        0.86051        5.32086
C          0.53297        0.73528        3.20682
H          1.47261        0.24098        3.01549
Pd        -1.32870        1.59226       -0.91438
Cl        -2.99038        2.42794       -2.16774
Cl         0.02642        1.14606       -2.64934
C         -4.94921        3.23156        0.82285
C         -4.05729        0.83042        0.83596
H         -2.95458        4.36880       -0.79517
H         -3.40800        5.61520        0.36303
H         -1.83165        4.82073        0.48251
H         -5.12586        3.40524       -0.24766
H         -5.64104        3.90593        1.35021
H         -4.09778        0.50781       -0.21315
C         -5.25396        1.74399        1.16161
C         -3.90121       -0.35927        1.75829
H         -3.39440        3.88491        2.20242
H         -5.48733        1.65282        2.23137
H         -6.15488        1.39751        0.63278
H         -3.79218       -0.03449        2.79470
H         -4.76804       -1.02210        1.70645
H         -3.01467       -0.94313        1.50290
C         -1.17779       -3.85563       -0.11768
C         -1.02048       -3.35152        1.19897
C         -0.61332       -2.03734        1.35472
C         -0.43025       -1.22244        0.26910
C         -0.67204       -1.67767       -0.99907
C         -1.09347       -2.97542       -1.22660
O         -1.37934       -5.24601       -0.32584
C         -1.24770       -4.21749        2.44749
H         -0.42252       -1.63234        2.33270
H         -0.51266       -0.99612       -1.81643
C         -1.42866       -3.40429       -2.66316
C          4.56069        0.68071       -0.49068
C          3.98370       -0.54054       -0.05825
C          2.62816       -0.55928        0.22200
C          1.87395        0.58279        0.15375
C          2.44643        1.78681       -0.16006
C          3.79784        1.87671       -0.45331
O          5.88820        0.69865       -0.99538
C          4.78595       -1.84497        0.06951
H          2.13375       -1.47931        0.48242
H          1.81433        2.65751       -0.19082
C          4.40352        3.25356       -0.76801
C          0.06416       -4.92591        2.81795
C         -1.69278       -3.34750        3.64537
C         -2.36147       -5.25255        2.20686
C         -0.15159       -3.90517       -3.35437
C         -2.50888       -4.50081       -2.67913
C         -1.99061       -2.20847       -3.46714
C         -0.17691       -5.98217       -0.51255
H          0.85223       -4.19918        3.01444
H         -0.06119       -5.53829        3.71055
H          0.40399       -5.57234        2.01242
H         -1.96993       -3.97203        4.49433
H         -0.89609       -2.68618        3.98279
H         -2.55735       -2.73849        3.38325
H         -2.08515       -5.95841        1.42746
H         -2.56723       -5.82443        3.11134
H         -3.28332       -4.75953        1.89989
H         -0.35577       -4.20537       -4.38177
H          0.60658       -3.12259       -3.37547
H          0.27058       -4.76012       -2.83146
H         -2.79140       -4.75791       -3.69968
H         -2.15981       -5.40970       -2.19578
H         -3.40265       -4.16584       -2.15378
H         -2.35367       -2.53344       -4.44176
H         -2.82175       -1.74227       -2.93861
H         -1.23157       -1.44875       -3.64681
H         -0.11156       -6.76989        0.23788
H         -0.18172       -6.44972       -1.49694
H          0.68940       -5.32488       -0.42656
C          5.97789        0.47004       -2.39623
C          4.73597       -2.60364       -1.26556
C          6.24562       -1.56277        0.46824
C          4.18496       -2.74941        1.17061
C          4.28382        3.52659       -2.27513
C          3.65233        4.36814       -0.00479
C          5.87740        3.32694       -0.32918
H          3.70630       -2.83322       -1.53936
H          5.16809       -2.01443       -2.07072
H          5.28592       -3.54226       -1.20230
H          6.76370       -0.99224       -0.29839
H          6.28630       -0.99067        1.39453
H          6.79740       -2.49050        0.61777
H          4.08229       -2.20308        2.10788
H          3.20587       -3.13409        0.88840
H          4.82512       -3.61195        1.35459
H          4.68906        4.50589       -2.52837
H          4.82127        2.78037       -2.85509
H          3.24056        3.50058       -2.58904
H          3.60619        4.14488        1.06080
H          4.15728        5.32647       -0.12428
H          2.63578        4.49525       -0.37393
H          6.49292        2.62373       -0.88439
H          5.97437        3.09150        0.73013
H          6.28624        4.32349       -0.49419
H          6.46369        1.32003       -2.87514
H          6.58223       -0.41708       -2.58469
H          4.98375        0.33083       -2.82295
