171
-217.84263350
P         -1.64153        0.41171       -0.43641
P          1.59270       -0.38201       -0.36732
C         -0.90910        1.35397       -1.77913
C          0.90196       -1.34525       -1.71263
C         -0.07868        0.73482       -2.70682
C          0.56665        1.52991       -3.67385
C          0.32848        2.89377       -3.69883
C         -0.52458        3.48342       -2.79061
C         -1.13542        2.70823       -1.82485
C          1.13047       -2.69951       -1.72306
C          0.57436       -3.48928       -2.71012
C         -0.22891       -2.91410       -3.67181
C         -0.47374       -1.55064       -3.67587
C          0.11933       -0.74085       -2.68908
Cl         1.46648        0.49771        2.83096
Cl        -1.70214       -0.51344        2.64971
C         -1.33138       -0.95751       -4.73778
C          1.50157        0.93797       -4.67008
H         -0.70888        4.54462       -2.82904
H         -1.79456        3.16333       -1.10370
H          1.74728       -3.14052       -0.95640
H          0.76608       -4.54969       -2.72665
H          0.82208        3.49570       -4.44319
H         -0.67417       -3.52761       -4.43678
C         -3.92785       -3.32939       -1.55071
C         -2.90429       -3.41273       -0.61398
C         -2.19509       -2.25530       -0.32426
C         -2.50634       -1.07115       -0.94390
C         -3.52421       -1.00229       -1.86318
C         -4.26160       -2.13643       -2.18340
H         -4.48907       -4.21391       -1.78188
H         -1.40703       -2.27123        0.40931
H         -3.75827       -0.05212       -2.31366
C         -4.26112        2.89837        2.30816
C         -4.82673        1.81714        1.64334
C         -4.01679        1.08662        0.78265
C         -2.70383        1.43935        0.59325
C         -2.16273        2.51149        1.25894
C         -2.92968        3.25956        2.14151
H         -4.87675        3.46013        2.98501
H         -4.39684        0.22076        0.27035
H         -1.12477        2.75228        1.10395
C          4.26631       -2.93138        2.26353
C          2.89402       -3.14372        2.30454
C          2.09290       -2.37133        1.47345
C          2.64970       -1.41321        0.66227
C          4.00676       -1.20755        0.64594
C          4.84732       -1.97085        1.44546
H          4.90106       -3.52544        2.89505
H          1.02415       -2.49709        1.46865
H          4.40422       -0.43637        0.01091
C          3.94804        3.28075       -1.58302
C          2.95985        3.40489       -0.61374
C          2.23327        2.27004       -0.28108
C          2.48797        1.07247       -0.90046
C          3.46660        0.96422       -1.85775
C          4.22326        2.07434       -2.21618
H          4.53730        4.13958       -1.84354
H          1.47757        2.31366        0.48464
H          3.64216        0.00249       -2.30901
Pd        -0.04379        0.06240        1.23655
C         -1.12069       -5.12487       -0.21024
C         -2.56056       -4.70803        0.13503
C         -3.50834       -5.86066       -0.24779
C         -2.68276       -4.46146        1.65129
H         -0.41219       -4.33561        0.03623
H         -0.82990       -6.02200        0.33599
H         -1.02962       -5.33448       -1.27537
H         -3.25631       -6.76672        0.30318
H         -4.54347       -5.61033       -0.01610
H         -3.43697       -6.09156       -1.31050
H         -2.45204       -5.36557        2.21433
H         -2.00227       -3.67910        1.98411
H         -3.69501       -4.15130        1.90949
C         -4.94344       -1.51510       -4.52281
C         -5.44308       -2.02489       -3.15995
C         -6.47705       -1.03811       -2.58784
C         -6.13698       -3.38384       -3.37714
H         -4.22888       -2.21502       -4.95398
H         -5.77004       -1.40684       -5.22487
H         -4.45715       -0.54491       -4.42982
H         -7.33639       -0.94402       -3.25150
H         -6.83666       -1.38023       -1.61774
H         -6.04645       -0.04593       -2.45765
H         -6.96712       -3.28602       -4.07666
H         -5.44371       -4.11693       -3.78923
H         -6.53954       -3.77350       -2.44231
C         -6.73778        0.25681        1.02391
C         -6.28870        1.43338        1.91181
C         -7.20057        2.63854        1.61505
C         -6.43567        1.01831        3.38672
H         -7.78192        0.00627        1.21070
H         -6.64179        0.51044       -0.03115
H         -6.14503       -0.63606        1.22210
H         -6.96784        3.48333        2.26201
H         -7.08229        2.96481        0.58191
H         -8.24837        2.38147        1.76972
H         -7.46022        0.72055        3.60896
H         -5.78120        0.17736        3.61544
H         -6.17242        1.83727        4.05519
C         -2.08086        5.59514        1.87430
C         -2.29530        4.44863        2.87680
C         -0.94067        4.02411        3.48010
C         -3.19325        4.95092        4.02409
H         -3.03240        5.92766        1.45985
H         -1.60160        6.44945        2.35203
H         -1.45263        5.27523        1.04454
H         -1.06456        3.16280        4.13616
H         -0.22377        3.75412        2.70680
H         -0.50258        4.83359        4.06356
H         -3.41035        4.14810        4.72852
H         -2.70364        5.75395        4.57494
H         -4.13642        5.34398        3.64562
C          2.74607       -3.85638        4.70470
C          2.30642       -4.18630        3.26592
C          2.81486       -5.58371        2.87022
C          0.76592       -4.19284        3.22412
H          3.82935       -3.89832        4.80977
H          2.42087       -2.85426        4.98374
H          2.31568       -4.56152        5.41553
H          2.52120       -5.82441        1.84853
H          3.90139       -5.63922        2.92791
H          2.40500       -6.34921        3.52888
H          0.36141       -4.91753        3.93049
H          0.36213       -3.21473        3.48553
H          0.40476       -4.46410        2.23360
C          6.80492       -1.34087        2.87679
C          6.36811       -1.76253        1.46207
C          6.80139       -0.66522        0.46935
C          7.06772       -3.07692        1.07031
H          7.87961       -1.16431        2.91743
H          6.29967       -0.42300        3.17686
H          6.56481       -2.10945        3.61052
H          6.34913        0.29365        0.72222
H          7.88315       -0.53324        0.48570
H          6.51600       -0.92464       -0.54998
H          6.83571       -3.87507        1.77442
H          6.74952       -3.40130        0.07967
H          8.15033       -2.95235        1.05327
C          1.21333        5.14325       -0.18013
C          2.66362        4.72346        0.11344
C          3.60341        5.85460       -0.34504
C          2.84815        4.51895        1.62929
H          0.51232        4.37014        0.13002
H          0.95746        6.06288        0.34569
H          1.07218        5.31317       -1.24693
H          4.64518        5.60352       -0.14636
H          3.49121        6.04996       -1.41137
H          3.38008        6.78064        0.18468
H          2.65035        5.44139        2.17489
H          2.17365        3.75473        2.01268
H          3.86730        4.20492        1.85343
C          5.18774        3.03384       -4.33402
C          5.38233        1.98757       -3.22003
C          5.46994        0.59228       -3.86915
C          6.70429        2.26423       -2.48048
H          5.98682        2.96832       -5.07230
H          4.24097        2.88177       -4.85026
H          5.19040        4.04688       -3.93401
H          5.66045       -0.17765       -3.12178
H          4.54825        0.34295       -4.39363
H          6.28320        0.55358       -4.59373
H          6.70716        3.25929       -2.03684
H          6.85602        1.54143       -1.67938
H          7.55361        2.19815       -3.16025
H         -2.05109       -1.68594       -5.11150
H          1.76251       -0.09007       -4.41569
H         -0.73045       -0.62328       -5.58409
H         -1.88960       -0.09995       -4.35940
H          2.42792        1.51034       -4.71444
H          1.06145        0.93942       -5.66820
