75
-122.80822612
P          1.92324       -0.44165       -0.11461
C          3.34659       -1.03500       -1.05768
C          3.95183       -0.22768       -1.99355
C          5.05297       -0.68249       -2.69538
C          5.54766       -1.94809       -2.45397
C          4.94282       -2.75713       -1.51346
C          3.84168       -2.29708       -0.81508
H          3.36972       -2.91960       -0.07360
H          5.32783       -3.74539       -1.32252
H          6.40486       -2.30517       -3.00115
H          5.51963       -0.05069       -3.43316
H          3.54697        0.75314       -2.18663
C          1.61450       -1.60996        1.20944
C          2.03888       -1.32604        2.48685
C          1.88664       -2.27057        3.48557
C          1.31828       -3.49475        3.19317
C          0.89635       -3.77503        1.90852
C          1.04530       -2.82723        0.91220
H          0.72911       -3.03349       -0.09849
H          0.44779       -4.72828        1.68223
H          1.19678       -4.23060        3.97119
H          2.21192       -2.05083        4.48906
H          2.49110       -0.36955        2.69453
C          2.29853        1.19949        0.53462
C          3.52376        1.81326        0.40479
C          3.70368        3.12821        0.81031
C          2.61706        3.81759        1.34614
C          1.38788        3.21363        1.49203
C          1.23318        1.86984        1.11584
O          0.02756        1.18344        1.30437
C         -1.15653        1.87953        1.02580
C         -1.30746        3.24510        1.31162
C         -2.47837        3.87872        0.95810
C         -3.51118        3.19144        0.32059
C         -3.35644        1.83539        0.06880
C         -2.19769        1.18746        0.42720
P         -1.81060       -0.54657        0.11956
C         -1.77550       -1.42611        1.69887
C         -1.30273       -0.81937        2.83992
C         -1.34683       -1.48429        4.05043
C         -1.86280       -2.76291        4.11287
C         -2.33073       -3.37527        2.96755
C         -2.28768       -2.70294        1.75954
H         -2.65946       -3.16853        0.86114
H         -2.73071       -4.37480        3.01377
H         -1.89433       -3.28562        5.05487
H         -0.97117       -1.00770        4.94091
H         -0.88303        0.16899        2.77636
C         -3.09380       -1.34851       -0.86185
C         -4.40146       -1.26814       -0.43953
C         -5.39791       -1.90409       -1.15755
C         -5.07567       -2.62649       -2.28896
C         -3.76054       -2.72099       -2.69807
C         -2.76671       -2.08487       -1.97739
H         -1.73629       -2.15799       -2.28530
H         -3.50756       -3.28840       -3.57860
H         -5.85109       -3.12088       -2.85107
H         -6.42284       -1.83856       -0.83120
H         -4.63552       -0.72658        0.46345
Pd        -0.03854       -0.09118       -1.43117
Cl        -1.76583        0.74454       -2.62299
Cl         1.36292        0.07224       -3.16969
H         -4.13685        1.29452       -0.43508
C         -4.77065        3.88961       -0.05116
H         -5.21268        3.45078       -0.94669
H         -4.58958        4.94564       -0.25553
H         -5.50315        3.82244        0.75422
H         -2.59258        4.92548        1.17814
S          0.00203        4.11097        2.13905
H          2.73531        4.84211        1.65234
C          5.03411        3.78224        0.68915
H          4.35007        1.27133       -0.01969
H          5.63842        3.59788        1.57823
H          5.58105        3.40238       -0.17486
H          4.93294        4.86153        0.56819
