87
-129.18831826
P         -1.64320       -0.36813       -0.19836
P          1.60864        0.36782       -0.10324
C         -1.37295        0.92689       -1.42648
C          1.41286       -0.68693       -1.54819
C         -0.38125        0.82904       -2.39879
C         -0.16757        1.92035       -3.26350
C         -0.96249        3.04719       -3.14339
C         -1.94811        3.12140       -2.18364
C         -2.14504        2.05919       -1.32390
C          2.20520       -1.80410       -1.65372
C          2.06091       -2.66061       -2.72704
C          1.11300       -2.39255       -3.69125
C          0.30089       -1.27437       -3.60362
C          0.45703       -0.39406       -2.51464
Cl         1.25367        0.90418        3.04511
Cl        -1.47097       -0.95783        2.95924
H         -2.55531        4.00757       -2.09716
H         -2.90795        2.11597       -0.56574
H          2.94093       -2.00912       -0.89407
H          2.68091       -3.53859       -2.80549
H         -0.79581        3.87706       -3.80906
H          0.99015       -3.06215       -4.52557
C         -1.30641       -4.57482       -1.88162
C         -0.56472       -4.22843       -0.76049
C         -0.70410       -2.94602       -0.24508
C         -1.53298       -2.03335       -0.85571
C         -2.26257       -2.38280       -1.96759
C         -2.15183       -3.66175       -2.48116
H         -1.21540       -5.56956       -2.28335
C          0.34047       -5.20890       -0.10203
H         -0.15748       -2.66368        0.63824
H         -2.90279       -1.65093       -2.43457
H         -2.71914       -3.94253       -3.35332
C         -5.60163        0.30572        1.95362
C         -5.46527       -0.75676        1.08229
C         -4.26574       -0.96161        0.42703
C         -3.21265       -0.10483        0.64701
C         -3.34613        0.95318        1.51679
C         -4.54661        1.17889        2.17916
H         -6.53171        0.46140        2.47325
H         -6.29091       -1.42945        0.91712
H         -4.14318       -1.79262       -0.24778
H         -2.50581        1.60235        1.70096
C         -4.67236        2.30200        3.14724
C          5.16472       -1.05785        2.36248
C          5.21864        0.16764        1.72814
C          4.14225        0.60476        0.97952
C          3.02410       -0.18738        0.86628
C          2.96643       -1.40663        1.50172
C          4.03500       -1.85831        2.26616
H          6.00313       -1.40165        2.94400
H          6.09782        0.78439        1.81818
H          4.16717        1.56295        0.48728
H          2.08203       -2.01508        1.41078
C          3.97407       -3.18623        2.93518
C          1.93419        4.74833       -1.25396
C          2.76564        3.81811       -1.84654
C          2.67457        2.48531       -1.49004
C          1.76052        2.09959       -0.53796
C          0.93949        3.02466        0.06372
C          1.00402        4.36470       -0.29758
H          2.00120        5.78613       -1.53269
H          3.48021        4.12855       -2.59111
H          3.30179        1.74172       -1.95640
H          0.23638        2.70618        0.81470
C          0.11269        5.36365        0.35173
Pd        -0.05911       -0.02972        1.48443
C          0.89772        1.89241       -4.30422
C         -0.71992       -1.03193       -4.66067
H          1.62256        1.10026       -4.11383
H          0.47028        1.72895       -5.29419
H          1.44339        2.83675       -4.32669
H         -1.44917       -0.28355       -4.34868
H         -0.25086       -0.68322       -5.58150
H         -1.26711       -1.94751       -4.88948
H          1.22189       -4.71298        0.30777
H         -0.17006       -5.71861        0.71617
H          0.68520       -5.96490       -0.80891
H         -4.30293        2.00644        4.13018
H         -4.09717        3.16888        2.81860
H         -5.71145        2.61545        3.25720
H          4.29735       -3.97725        2.25703
H          4.61579       -3.21375        3.81690
H          2.95749       -3.41455        3.25896
H         -0.85021        4.91970        0.60931
H          0.56310        5.74640        1.26854
H         -0.07957        6.20963       -0.30970
