171
-217.84669297
P         -1.62503        0.42641       -0.26545
P          1.62562       -0.39569       -0.30893
C         -0.87672        1.39605       -1.57697
C          0.85645       -1.33667       -1.62851
C         -0.09705        0.78499       -2.55313
C          0.54065        1.59513       -3.51218
C          0.35116        2.96681       -3.47433
C         -0.44148        3.55015       -2.50828
C         -1.04893        2.75827       -1.55394
C          1.02692       -2.69910       -1.64843
C          0.40775       -3.46087       -2.61954
C         -0.39037       -2.84716       -3.56204
C         -0.57632       -1.47437       -3.55757
C          0.06860       -0.69538       -2.57776
Cl         1.63979        0.48540        2.83724
Cl        -1.52513       -0.42489        2.92063
C         -1.44051       -0.84811       -4.59542
C          1.41161        1.00733       -4.56689
H         -0.58330        4.61839       -2.49367
H         -1.65953        3.20408       -0.78522
H          1.64787       -3.16883       -0.90290
H          0.54773       -4.52927       -2.63872
H          0.83871        3.58082       -4.21273
H         -0.88288       -3.43772       -4.31608
C         -3.90348       -3.21665       -1.65940
C         -2.91333       -3.37488       -0.69801
C         -2.21571       -2.24395       -0.29340
C         -2.48541       -1.02413       -0.86096
C         -3.45259       -0.88654       -1.82620
C         -4.19156       -1.98823       -2.24105
H         -4.48528       -4.07309       -1.94595
H         -1.46841       -2.29970        0.47889
H         -3.63605        0.09208       -2.23653
C         -4.47644        2.84419        2.30745
C         -4.98682        1.86092        1.46879
C         -4.08892        1.15342        0.68276
C         -2.74426        1.42482        0.73013
C         -2.25672        2.40248        1.56192
C         -3.11798        3.13025        2.37435
H         -5.14671        3.39628        2.93902
H         -4.44354        0.36803        0.03890
H         -1.19483        2.57522        1.59045
C          4.40891       -2.89657        2.26252
C          3.04920       -3.18773        2.27426
C          2.21594       -2.44021        1.45203
C          2.72311       -1.42584        0.67875
C          4.06538       -1.14086        0.69499
C          4.93976       -1.87544        1.48304
H          5.06896       -3.47407        2.88035
H          1.15800       -2.63841        1.42596
H          4.43626       -0.32733        0.09669
C          3.97981        3.19043       -1.72404
C          2.98333        3.38021       -0.77485
C          2.26233        2.26776       -0.35971
C          2.51864        1.03468       -0.90441
C          3.49275        0.86581       -1.85747
C          4.25284        1.94861       -2.28381
H          4.57787        4.03277       -2.01881
H          1.50429        2.34897        0.39985
H          3.66363       -0.12239       -2.25003
Pd         0.02032        0.01569        1.34265
C         -2.42526       -5.79023       -1.19386
C         -2.65614       -4.75411       -0.07744
C         -3.87701       -5.16059        0.76585
C         -1.41078       -4.73713        0.82903
H         -1.59288       -5.49112       -1.82972
H         -2.19422       -6.76935       -0.77460
H         -3.30586       -5.90068       -1.82510
H         -3.72350       -6.13364        1.23206
H         -4.05831       -4.43160        1.55554
H         -4.77583       -5.21949        0.15279
H         -1.20428       -5.73197        1.22334
H         -0.53395       -4.40860        0.27193
H         -1.55152       -4.07036        1.67924
C         -6.67469       -2.11557       -2.49400
C         -5.35117       -1.86656       -3.23982
C         -5.18712       -2.90826       -4.36327
C         -5.40486       -0.46571       -3.88074
H         -6.69634       -3.11247       -2.05477
H         -6.80468       -1.39344       -1.68814
H         -7.52633       -2.02693       -3.16825
H         -4.23450       -2.78016       -4.87554
H         -5.22328       -3.92482       -3.97416
H         -5.98187       -2.81046       -5.10264
H         -6.21043       -0.40611       -4.61247
H         -5.58706        0.30412       -3.13145
H         -4.47287       -0.23288       -4.39461
C         -7.31797        2.38859        2.34566
C         -6.48056        1.51532        1.39218
C         -6.67831        0.03752        1.78013
C         -6.97954        1.74248       -0.04699
H         -7.21953        3.44536        2.09804
H         -8.37489        2.13105        2.27775
H         -7.00967        2.24512        3.38108
H         -7.73341       -0.23443        1.75715
H         -6.14893       -0.62646        1.09761
H         -6.30236       -0.14934        2.78579
H         -8.04189        1.51480       -0.13269
H         -6.83048        2.77952       -0.34702
H         -6.44530        1.11014       -0.75494
C         -3.28758        5.53678        3.07091
C         -2.60793        4.18667        3.36449
C         -1.08310        4.37660        3.25527
C         -2.94043        3.73378        4.79773
H         -2.92244        6.31146        3.74500
H         -3.08368        5.85537        2.04875
H         -4.36813        5.47310        3.19268
H         -0.55340        3.45108        3.48063
H         -0.80599        4.70155        2.25346
H         -0.73485        5.13435        3.95692
H         -2.57292        4.45249        5.52990
H         -4.01545        3.63063        4.94059
H         -2.48082        2.76869        5.01046
C          2.04058       -5.47474        2.23489
C          2.45135       -4.30362        3.14296
C          1.21642       -3.76784        3.89609
C          3.46252       -4.81563        4.18738
H          1.58226       -6.27720        2.81262
H          1.32606       -5.15045        1.48036
H          2.90776       -5.88263        1.71585
H          1.47870       -2.89285        4.49038
H          0.42110       -3.47866        3.21125
H          0.81108       -4.52395        4.56808
H          3.00398       -5.56253        4.83537
H          4.32269       -5.28372        3.70952
H          3.81736       -4.00077        4.81823
C          6.98085       -1.71011        0.03898
C          6.43396       -1.52326        1.46643
C          7.24308       -2.41896        2.42362
C          6.61328       -0.05595        1.90070
H          6.84968       -2.74018       -0.29183
H          6.46402       -1.06411       -0.66955
H          8.04354       -1.47269       -0.00665
H          6.89562       -2.30912        3.45074
H          7.16327       -3.46847        2.14095
H          8.29958       -2.15181        2.40249
H          7.66785        0.21792        1.92499
H          6.10884        0.62555        1.21661
H          6.19907        0.10340        2.89600
C          3.97068        5.18328        0.65127
C          2.74339        4.77475       -0.18208
C          1.50017        4.79315        0.72741
C          2.52470        5.79029       -1.31962
H          3.82969        6.16723        1.09817
H          4.14445        4.46809        1.45513
H          4.86929        5.21934        0.03618
H          1.63207        4.13472        1.58571
H          1.31455        5.79701        1.10912
H          0.61310        4.47575        0.17986
H          2.30734        6.78099       -0.92078
H          3.40590        5.87545       -1.95397
H          1.68781        5.48909       -1.94851
C          5.28935        2.82514       -4.40648
C          5.41780        1.79108       -3.27127
C          5.44227        0.38350       -3.89907
C          6.74003        2.01641       -2.51590
H          4.34107        2.71165       -4.93008
H          5.34226        3.84456       -4.02698
H          6.09106        2.70341       -5.13472
H          5.60384       -0.38343       -3.14204
H          4.50673        0.16794       -4.41450
H          6.24917        0.29870       -4.62682
H          6.78132        3.01741       -2.08749
H          6.84526        1.30075       -1.70080
H          7.59545        1.89989       -3.18105
H         -1.79385        0.13435       -4.27940
H          2.32409        1.59222       -4.68443
H         -2.31695       -1.46496       -4.79493
H         -0.89714       -0.72663       -5.53341
H          0.89949        0.98861       -5.52988
H          1.70569       -0.01356       -4.31971
