58
-89.86250379
P          1.73103        0.19518        0.83086
C          2.42713        1.83343        0.54608
C          2.95863        2.56302        1.58674
C          3.50024        3.81323        1.34650
C          3.51427        4.32443        0.06399
C          2.99645        3.58476       -0.97994
C          2.45780        2.33583       -0.73478
H          2.08620        1.73099       -1.54458
H          2.96373        2.15123        2.58258
C          2.92990       -1.06903        0.39421
C          2.52885       -2.38137        0.29127
C          3.44793       -3.35526       -0.05578
C          4.76216       -3.00653       -0.29717
C          5.15949       -1.68800       -0.19362
C          4.23795       -0.71651        0.15312
H          4.53102        0.31803        0.23067
H          1.49775       -2.63915        0.47113
C          1.30520       -0.01364        2.61220
C          0.10189       -0.90690        2.87257
C         -1.22437       -0.20208        2.62869
P         -1.72017       -0.10335        0.85636
C         -2.68641       -1.56745        0.47042
C         -4.04777       -1.46147        0.30024
C         -4.79254       -2.58654       -0.00455
C         -4.16625       -3.81014       -0.13755
C         -2.79955       -3.91123        0.03273
C         -2.05769       -2.78436        0.33824
H         -0.98882       -2.84825        0.46231
H         -4.52096       -0.49797        0.40030
C         -2.70303        1.38105        0.57230
C         -2.85426        1.85212       -0.71187
C         -3.61147        2.98262       -0.95400
C         -4.22545        3.63389        0.09668
C         -4.08856        3.15158        1.38315
C         -3.32838        2.02022        1.62024
H         -3.23462        1.62840        2.61979
H         -2.40035        1.31229       -1.52553
Pd         0.01399       -0.17238       -0.69783
Cl         1.63246       -0.33668       -2.25388
Cl        -1.59582       -0.65234       -2.19893
H         -2.04814       -0.71072        3.13629
H         -1.18802        0.81387        3.02587
H          0.16504       -1.81298        2.25708
H          0.13567       -1.26194        3.91451
H          2.20743       -0.40774        3.08717
H          1.13339        0.97752        3.03553
H          3.91368        4.38621        2.16025
H          3.01835        3.97509       -1.98417
H          3.13648       -4.38330       -0.14192
H          6.18397       -1.41487       -0.38621
H         -5.85842       -2.50658       -0.14139
H         -2.30988       -4.86495       -0.07646
H         -3.72714        3.34897       -1.96084
H         -4.57592        3.65411        2.20252
H          3.93664        5.29824       -0.12335
H          5.47825       -3.76434       -0.57038
H         -4.74465       -4.68726       -0.37805
H         -4.81795        4.51510       -0.08823
