111
-148.55158664
P         -2.52854        2.14720       -0.31043
P         -0.00914        0.39647        0.45212
C         -1.86404        2.21877        1.37221
C         -0.76983        1.44917        1.70114
C         -2.76592        3.84667       -1.00377
C         -1.91931        4.04387       -2.24255
C         -2.43524        3.04543        2.31842
H         -3.27525        3.66382        2.04761
C         -1.91888        3.08286        3.60207
H         -2.36606        3.72566        4.34266
C         -0.83086        2.29866        3.93397
H         -0.42904        2.32663        4.93345
C         -0.25280        1.48109        2.97927
H          0.60112        0.86900        3.22168
Pd        -1.16052        0.74477       -1.53006
Cl        -2.56319        0.91425       -3.27195
Cl         0.28070       -0.60066       -2.60129
C         -4.28626        3.92159       -1.26202
C         -4.25823        1.49964       -0.43311
H         -2.03910        5.04871       -2.65461
H         -0.85865        3.88992       -2.02879
H         -2.20486        3.33321       -3.01998
H         -4.47404        4.51225       -2.17028
H         -4.77817        4.47183       -0.44663
H         -4.18791        0.50373       -0.89110
C         -4.92558        2.50978       -1.38813
C         -4.92466        1.42184        0.92480
H         -2.46221        4.55099       -0.21730
H         -6.00592        2.55170       -1.18560
H         -4.82973        2.15891       -2.42633
H         -5.05037        2.41918        1.34897
H         -5.91669        0.96858        0.85944
H         -4.32935        0.83902        1.63104
C         -1.10827       -3.98026        1.06258
C          0.21489       -3.64000        0.68326
C          0.53013       -2.30023        0.53724
C         -0.42217       -1.32786        0.69863
C         -1.73076       -1.65753        0.94335
C         -2.11578       -2.98152        1.08646
O         -1.40574       -5.31086        1.46067
C          1.29973       -4.70165        0.44563
H          1.53025       -1.99723        0.28368
H         -2.45179       -0.86120        1.01322
C         -3.60607       -3.31274        1.26276
C          4.46201        1.19772        0.04625
C          3.56474        1.64734       -0.95526
C          2.21162        1.41308       -0.77680
C          1.75131        0.69272        0.29441
C          2.62503        0.16765        1.21154
C          3.99085        0.36874        1.09590
O          5.82255        1.60459        0.01556
C          4.03404        2.38559       -2.21892
H          1.49349        1.79016       -1.48404
H          2.22306       -0.40868        2.02657
C          4.93503       -0.29059        2.11403
C          2.00700       -5.01583        1.77227
C          0.68934       -5.98599       -0.14452
C          2.34985       -4.19258       -0.56792
C         -4.47359       -2.33270        0.44257
C         -3.93428       -4.72732        0.75058
C         -3.98075       -3.18703        2.74702
C         -1.27391       -5.53562        2.85841
H          1.31263       -5.42966        2.49949
H          2.80923       -5.73857        1.62548
H          2.43921       -4.11317        2.20264
H         -0.00655       -6.44889        0.55128
H          0.14684       -5.76555       -1.06326
H          1.46288       -6.71839       -0.37392
H          3.04489       -4.98742       -0.83741
H          1.86885       -3.84430       -1.48162
H          2.94209       -3.37522       -0.15975
H         -4.42629       -1.32429        0.84625
H         -4.14662       -2.30198       -0.59653
H         -5.52061       -2.63445        0.45683
H         -5.00407       -4.92667        0.80785
H         -3.62293       -4.84059       -0.28731
H         -3.42696       -5.49022        1.33525
H         -5.03522       -3.41235        2.90431
H         -3.39480       -3.86909        3.35931
H         -3.79429       -2.17551        3.10723
H         -2.24959       -5.75511        3.29104
H         -0.62393       -6.39415        3.02768
H         -0.85115       -4.65661        3.34659
C          6.07936        2.82073        0.70637
C          3.07517        2.10602       -3.39951
C          4.05309        3.89757       -1.94936
C          5.43081        1.90582       -2.65359
C          4.34302       -1.62343        2.62514
C          6.29552       -0.62484        1.47518
C          5.12912        0.65230        3.31093
H          3.47632        2.51022       -4.32855
H          2.92978        1.03463       -3.53538
H          2.10034        2.56643       -3.24613
H          4.73406        4.14488       -1.13851
H          4.37015        4.44793       -2.83482
H          3.06121        4.25141       -1.66897
H          6.18214        2.14037       -1.90365
H          5.43537        0.82691       -2.80496
H          5.73612        2.38075       -3.58561
H          5.06052       -2.14946        3.25452
H          3.44777       -1.46597        3.22466
H          4.08931       -2.27651        1.79116
H          6.93900       -1.15402        2.17760
H          6.16192       -1.25489        0.59641
H          6.81991        0.27498        1.16362
H          5.56427        1.59909        2.99988
H          5.78821        0.20729        4.05593
H          4.17440        0.86804        3.79009
H          5.15699        3.22003        1.13000
H          6.79892        2.64267        1.50532
H          6.50850        3.54847        0.01785
