111
-148.55172518
P         -2.72448        1.92383       -0.36623
P          0.08187        0.60864        0.31631
C         -1.92353        2.25541        1.23281
C         -0.68184        1.72214        1.50338
C         -3.77318        3.37015       -0.86301
C         -3.44122        3.86059       -2.25467
C         -2.55602        3.02973        2.18535
H         -3.53577        3.42996        1.98322
C         -1.93753        3.27349        3.39966
H         -2.43206        3.87830        4.14216
C         -0.69025        2.74074        3.66316
H         -0.21063        2.92784        4.60980
C         -0.06185        1.95695        2.71236
H          0.90349        1.51595        2.90675
Pd        -1.06658        0.93262       -1.65458
Cl        -2.44357        1.17752       -3.40812
Cl         0.56488       -0.03395       -2.85834
C         -5.20831        2.82154       -0.71899
C         -4.01231        0.59734       -0.26900
H         -3.66295        3.09155       -2.99541
H         -4.02451        4.74592       -2.51855
H         -2.38207        4.11198       -2.34595
H         -5.86231        3.30714       -1.45794
H         -5.61817        3.09700        0.26386
H         -3.66386       -0.23174       -0.90042
C         -5.25537        1.27589       -0.87975
C         -4.20110        0.13030        1.15793
H         -3.57759        4.16533       -0.13128
H         -6.16387        0.86488       -0.41579
H         -5.32825        1.02524       -1.94837
H         -4.95758       -0.65506        1.22723
H         -3.26960       -0.26158        1.57155
H         -4.52128        0.95704        1.79473
C         -1.21398       -3.67197        1.17506
C         -0.62503       -3.34058       -0.07400
C         -0.26428       -2.02345       -0.29526
C         -0.39456       -1.07720        0.68572
C         -0.83619       -1.41915        1.93664
C         -1.21671       -2.71835        2.22821
O         -1.87305       -4.91716        1.34029
C         -0.35128       -4.35464       -1.19637
H          0.11142       -1.71040       -1.25478
H         -0.89172       -0.65213        2.68967
C         -1.60278       -3.04568        3.68038
C          4.61866        0.90749        0.08025
C          3.81654        1.79540       -0.68567
C          2.43926        1.71398       -0.55635
C          1.86067        0.74646        0.22222
C          2.62680       -0.19105        0.86485
C          4.00884       -0.16644        0.78127
O          6.01318        1.13581        0.20526
C          4.38743        2.81694       -1.68392
H          1.79786        2.40463       -1.07749
H          2.12811       -0.95839        1.43287
C          4.78721       -1.32753        1.42292
C          1.09193       -4.16458       -1.71404
C         -0.46892       -5.81023       -0.71300
C         -1.33722       -4.11389       -2.35173
C         -1.65666       -4.56034        3.94491
C         -0.54101       -2.45798        4.63620
C         -2.97048       -2.41991        4.00043
C         -3.24142       -4.86291        0.97277
H          1.33761       -4.91539       -2.46451
H          1.23209       -3.18805       -2.17443
H          1.80784       -4.25788       -0.89798
H          0.17370       -5.98151        0.14991
H         -1.48924       -6.04728       -0.42102
H         -0.17941       -6.50930       -1.49724
H         -1.15110       -4.80535       -3.17299
H         -2.36636       -4.25004       -2.02470
H         -1.24331       -3.09996       -2.73953
H         -0.71839       -5.03409        3.65838
H         -1.83542       -4.76912        4.99943
H         -2.45515       -5.03139        3.37653
H         -0.51556       -1.37036        4.59406
H         -0.75023       -2.73780        5.66839
H          0.45181       -2.82828        4.38185
H         -3.26493       -2.63270        5.02777
H         -2.94238       -1.33763        3.87836
H         -3.74476       -2.80921        3.34189
H         -3.76498       -4.13283        1.58811
H         -3.33616       -4.57249       -0.07245
H         -3.69185       -5.84522        1.11658
C          6.33491        1.98167        1.29635
C          3.59934        2.73109       -3.01040
C          4.24782        4.23356       -1.10373
C          5.86353        2.54286       -2.02068
C          4.12637       -2.66730        1.02666
C          6.24791       -1.38769        0.94381
C          4.75389       -1.18151        2.95296
H          4.03780        3.38196       -3.76634
H          3.60793        1.71236       -3.39689
H          2.56102        3.03333       -2.88594
H          3.20479        4.46643       -0.89158
H          4.80631        4.33444       -0.17500
H          4.62282        4.97972       -1.80377
H          6.22053        3.21561       -2.80010
H          6.49882        2.68248       -1.14914
H          5.99416        1.51877       -2.36863
H          3.11972       -2.75948        1.43113
H          4.06314       -2.75780       -0.05738
H          4.70434       -3.51163        1.40142
H          6.29408       -1.42141       -0.14414
H          6.80702       -0.51542        1.27422
H          6.75361       -2.27070        1.33382
H          3.72848       -1.17591        3.32153
H          5.22586       -0.25301        3.26902
H          5.27903       -2.00612        3.43433
H          7.41615        2.11337        1.34242
H          5.85897        2.95270        1.16889
H          5.98572        1.53852        2.22773
