111
-148.55381003
P         -2.67336        1.90772       -0.07663
P          0.11884        0.50142        0.38550
C         -1.85063        2.05249        1.53326
C         -0.61003        1.47946        1.71242
C         -3.58693        3.45285       -0.52683
C         -2.83752        4.26095       -1.56355
C         -2.45520        2.72291        2.57734
H         -3.43394        3.15234        2.44005
C         -1.80796        2.82476        3.79684
H         -2.27909        3.34834        4.61263
C         -0.56142        2.25438        3.97110
H         -0.05936        2.33153        4.92145
C          0.03787        1.57444        2.92607
H          1.00267        1.10746        3.04924
Pd        -1.07099        1.07867       -1.51340
Cl        -2.47958        1.44265       -3.21975
Cl         0.58512        0.22907       -2.77277
C         -4.95340        2.91486       -0.99018
C         -4.05973        0.68137       -0.10837
H         -3.37947        5.17197       -1.82787
H         -1.84657        4.54722       -1.20315
H         -2.69834        3.68464       -2.47904
H         -4.92111        2.76226       -2.07785
H         -5.74003        3.66569       -0.81983
H         -3.89773        0.06432       -1.00245
C         -5.30452        1.57053       -0.29011
C         -4.07260       -0.17467        1.13950
H         -3.70055        4.02935        0.39992
H         -5.73959        1.77551        0.69772
H         -6.08328        1.02904       -0.84839
H         -3.14919       -0.74932        1.23344
H         -4.16525        0.44477        2.03347
H         -4.90838       -0.87819        1.13345
C         -1.32812       -3.79786        0.77958
C         -0.80642       -3.33639       -0.45579
C         -0.37299       -2.02517       -0.53142
C         -0.37895       -1.21002        0.56890
C         -0.77707       -1.68442        1.79075
C         -1.22176       -2.98752        1.93939
O         -1.99546       -5.04980        0.84486
C         -0.75587       -4.20968       -1.71844
H         -0.04311       -1.60538       -1.46548
H         -0.75778       -1.01089        2.62935
C         -1.62010       -3.48426        3.33785
C          4.63690        0.96395        0.06663
C          3.81082        2.11660        0.10204
C          2.44214        1.94101        0.22986
C          1.89180        0.68627        0.25349
C          2.67600       -0.42810        0.10951
C          4.05002       -0.32373       -0.02549
O          6.04841        1.09632        0.15476
C          4.38014        3.54184        0.02278
H          1.78164        2.78681        0.31671
H          2.19511       -1.39051        0.10190
C          4.87751       -1.59773       -0.25746
C         -0.54639       -5.69205       -1.36098
C         -2.06147       -4.03137       -2.50833
C          0.42676       -3.79325       -2.62281
C         -3.10192       -3.16525        3.58874
C         -1.37023       -4.99640        3.48265
C         -0.77452       -2.78291        4.42530
C         -3.39396       -4.97143        0.59787
H         -0.44841       -6.30161       -2.25893
H          0.35670       -5.81862       -0.76478
H         -1.38222       -6.08409       -0.78702
H         -2.92380       -4.33177       -1.91799
H         -2.20065       -2.98796       -2.79076
H         -2.05173       -4.62930       -3.41918
H          1.36050       -3.79101       -2.06194
H          0.53916       -4.48632       -3.45614
H          0.28059       -2.80236       -3.04993
H         -3.41338       -3.50840        4.57497
H         -3.27968       -2.09152        3.53451
H         -3.73953       -3.64396        2.84934
H         -1.59033       -5.33492        4.49480
H         -1.99478       -5.56915        2.80180
H         -0.33030       -5.23605        3.26332
H         -1.01253       -1.72293        4.50101
H         -0.96194       -3.22290        5.40454
H          0.28955       -2.88159        4.21204
H         -3.94014       -5.34631        1.46330
H         -3.68867       -3.93983        0.40075
H         -3.64914       -5.59243       -0.26065
C          6.55219        1.06679        1.48417
C          4.68934        4.04569        1.44054
C          5.65152        3.58345       -0.84468
C          3.35951        4.50110       -0.63080
C          5.30038       -2.18568        1.09706
C          4.04441       -2.65635       -1.01603
C          6.11825       -1.30164       -1.11931
H          3.78799        4.04952        2.05307
H          5.42127        3.41048        1.93360
H          5.08588        5.06040        1.41655
H          6.45255        2.99561       -0.40345
H          5.45112        3.18255       -1.83770
H          6.01600        4.60415       -0.95768
H          3.02025        4.11037       -1.58983
H          2.48871        4.65731        0.00412
H          3.80596        5.47949       -0.80699
H          4.42652       -2.42565        1.70239
H          5.87909       -3.09916        0.96246
H          5.90938       -1.48217        1.65958
H          3.23424       -3.04670       -0.40186
H          3.61526       -2.23283       -1.92380
H          4.66484       -3.50502       -1.30303
H          6.66983       -2.21522       -1.33969
H          6.79857       -0.62032       -0.61440
H          5.82769       -0.84400       -2.06437
H          5.73702        0.94002        2.19769
H          7.25896        0.24381        1.58889
H          7.07955        1.99673        1.69602
