59
-75.79808199
Cl         1.62606        0.85800        2.33431
P          1.66349        0.06795       -0.79447
P         -1.48312       -0.22431       -0.79304
C          0.69359        0.37314       -2.33503
H          0.39140        1.42343       -2.34829
H          1.34189        0.20250       -3.20006
C         -0.50779       -0.53106       -2.33176
H         -0.20066       -1.58029       -2.33322
H         -1.15416       -0.37495       -3.20111
C          2.48597       -1.58733       -0.90365
H          2.27941       -1.97306       -1.90922
C          3.15605        1.14557       -0.61153
H          3.25577        1.34745        0.46203
C         -2.60939       -1.60597       -0.29168
H         -2.43279       -1.76923        0.77864
C         -2.71776        1.13217       -1.02744
H         -2.82763        1.27129       -2.10981
C          3.98395       -1.26288       -0.74364
H          4.27981       -1.46536        0.29473
H          4.59283       -1.94070       -1.36067
C          4.29312        0.22215       -1.08201
H          4.41573        0.33623       -2.16813
H          5.25108        0.53718       -0.64030
C         -4.01258       -1.01426       -0.51844
H         -4.36897       -1.31882       -1.51208
H         -4.72994       -1.44384        0.19728
C         -4.00377        0.53717       -0.42685
H         -4.07304        0.83971        0.62722
H         -4.89155        0.96482       -0.91728
C          1.92969       -2.53332        0.15343
H          0.83434       -2.56134        0.07152
H          2.13110       -2.10965        1.14674
C          3.03563        2.45785       -1.37554
H          4.01896        2.94746       -1.40876
H          2.78665        2.23910       -2.42198
C         -2.32933       -2.88544       -1.07057
H         -2.47552       -2.68735       -2.14068
H         -1.26752       -3.14680       -0.96644
C         -2.25360        2.42691       -0.37285
H         -2.11648        2.25133        0.70219
H         -1.25554        2.68277       -0.75262
C          2.49650       -3.94140        0.05247
H          2.08056       -4.60571        0.81340
H          3.58113       -3.94251        0.17407
H          2.28160       -4.38295       -0.92252
C          2.00683        3.39724       -0.76463
H          1.90024        4.32107       -1.33762
H          2.28126        3.67177        0.25571
H          1.02469        2.92711       -0.71032
C         -3.19697       -4.05353       -0.62595
H         -3.04752       -4.27374        0.43277
H         -2.97598       -4.96507       -1.18600
H         -4.25764       -3.83505       -0.76196
C         -3.21164        3.58688       -0.59803
H         -3.34411        3.78730       -1.66291
H         -4.19898        3.37163       -0.18566
H         -2.85581        4.50822       -0.13127
Cl        -1.61809        0.35989        2.34306
Pd         0.06628        0.18946        0.86997
