115
-277.93454109
P         -1.74887       -0.19689       -0.03835
P          1.79187       -0.89195        0.45203
C         -1.55779        1.56496       -0.40679
C         -2.66730        2.37128       -0.27744
H         -3.63752        1.92931       -0.10978
C         -2.51624        3.74183       -0.25220
H         -3.35455        4.37801       -0.01826
C         -1.25963        4.30981       -0.38805
C         -0.17658        3.49515       -0.67640
H          0.79353        3.95569       -0.80764
C         -0.32650        2.12306       -0.68208
H          0.53368        1.49408       -0.83533
C         -3.24400       -0.83192       -0.81552
C         -3.79689       -1.98951       -0.31895
H         -3.33631       -2.48386        0.52088
C         -4.94496       -2.50308       -0.88726
H         -5.40731       -3.39762       -0.50106
C         -5.53681       -1.86529       -1.95925
C         -4.97223       -0.70358       -2.45225
H         -5.44606       -0.20636       -3.28350
C         -3.82609       -0.18875       -1.88317
H         -3.37463        0.70498       -2.28305
C         -1.71826       -0.69351        1.72064
C         -1.10276       -1.91939        1.90811
H         -0.67139       -2.42765        1.06171
C         -0.87408       -2.43189        3.18569
C         -1.49788       -1.79714        4.25351
H         -1.37002       -2.19066        5.24809
C         -2.13147       -0.58401        4.07395
H         -2.49774       -0.04779        4.93288
C         -2.14975        0.04486        2.82958
C          1.37124       -0.36713        2.15408
C          0.71695        0.84800        2.15189
H          0.47935        1.31086        1.21253
C          0.19532        1.40452        3.31707
C          0.54667        0.81500        4.52513
H          0.19076        1.24477        5.44651
C          1.20432       -0.39870        4.54198
H          1.35688       -0.90213        5.48168
C          1.52083       -1.06820        3.35956
C         -2.30617        1.54815        2.81409
H         -3.13668        1.82928        3.47102
H         -2.62855        1.85312        1.82164
C         -0.99708        2.31938        3.22640
H         -0.77595        3.12852        2.52187
H         -1.13340        2.82208        4.19014
C          0.29918       -3.34445        3.43777
H          0.31176       -4.14625        2.69206
H          0.15143       -3.86091        4.39278
C          1.66774       -2.57079        3.44338
H          2.24789       -2.82693        4.33794
H          2.29600       -2.92140        2.62910
C          2.73161       -2.41823        0.54329
C          2.09877       -3.61781        0.29543
C          3.97962       -2.38930        1.13024
C          2.66958       -4.79347        0.73731
C          4.53902       -3.56602        1.59134
C          3.85468       -4.76568        1.45407
C          2.79683        0.37063       -0.34800
C          2.99499        0.32831       -1.70880
C          3.22944        1.45423        0.38252
C          3.56724        1.40253       -2.35568
H          2.65574       -0.52523       -2.27148
C          3.80340        2.52872       -0.26277
H          3.07345        1.48386        1.44861
C          3.94789        2.52067       -1.63865
H          3.66477        1.41931       -3.42998
H          4.07745        3.41718        0.28389
Pd         0.08498       -1.16212       -1.14355
Cl        -1.35071       -1.31321       -2.86950
Cl         1.58109       -2.37466       -2.31144
H          5.44898       -3.54693        2.16892
H          4.45641       -1.44187        1.32881
H          2.14166       -5.73083        0.65401
H          1.12463       -3.63145       -0.16609
C         -2.19442        6.65857       -0.15881
C         -0.99798        5.70431        0.12597
C         -0.70823        5.54331        1.65121
F         -1.84077        7.91264        0.16391
F         -2.47652        6.58018       -1.46793
F         -3.26114        6.27559        0.55640
F          0.08810        6.22236       -0.45259
F         -1.74030        4.91281        2.22766
F          0.38477        4.77711        1.77512
F         -0.50797        6.74574        2.20750
C         -8.00601       -1.61889       -1.84833
C         -6.83478       -2.40021       -2.50960
C         -6.85648       -2.30165       -4.06372
F         -9.17292       -2.05052       -2.34953
F         -7.95065       -1.85639       -0.52915
F         -7.84597       -0.30726       -2.07858
F         -6.97078       -3.68902       -2.18514
F         -5.73332       -2.87471       -4.52164
F         -7.93173       -2.95430       -4.53162
F         -6.89169       -1.01358       -4.43266
C          2.96950        4.64269       -2.39403
C          4.27265        3.78986       -2.38100
C          5.47556        4.52986       -1.72741
F          2.01938        3.91104       -2.99442
F          2.59605        4.88799       -1.13084
F          3.18150        5.78408       -3.06537
F          4.59884        3.51563       -3.64684
F          6.49681        3.66239       -1.66155
F          5.81130        5.58192       -2.49030
F          5.14326        4.93234       -0.49288
C          5.65399       -6.04186        2.70888
C          4.14068       -5.93610        2.36231
C          3.24140       -5.72795        3.62372
F          6.02552       -4.98356        3.44219
F          5.87079       -7.18064        3.38506
F          6.33557       -6.05302        1.55382
F          3.76999       -7.07634        1.77472
F          3.51289       -4.53301        4.16467
F          1.96489       -5.73711        3.21444
F          3.45928       -6.71382        4.50411
