45
-71.81245199
C          2.29120        1.46642        2.32608
P          1.52276        0.93863        0.75876
P         -0.99901        0.03380       -0.92337
C         -0.30283       -0.61097       -2.48264
Cl         1.60423       -1.77415        2.33434
H          1.52345        1.78814        3.02394
H          0.76103       -0.39673       -2.52828
Cl        -1.51326       -2.43061        0.94032
C          0.44879        2.19257        0.02966
C         -0.63045        1.79042       -0.72693
C         -1.43834        2.72704       -1.33815
C         -1.16003        4.07457       -1.19116
C         -0.07436        4.47761       -0.43785
C          0.73504        3.53483        0.17133
H         -2.28168        2.39717       -1.92352
H         -1.78990        4.80869       -1.66602
H          0.14522        5.52676       -0.32702
H          1.59266        3.83760        0.74976
Pd         0.14421       -0.92297        0.85898
H         -0.79324       -0.14088       -3.33025
H          2.97846        2.28836        2.14740
H         -0.44609       -1.68633       -2.53774
C         -5.47010       -0.65413       -0.43478
C         -4.78255        0.15015        0.45224
C         -3.42428        0.35456        0.28547
C         -2.76593       -0.24190       -0.76572
C         -3.44603       -1.04847       -1.64951
C         -4.80400       -1.25445       -1.48498
H         -6.52758       -0.81690       -0.30485
H         -5.30040        0.61480        1.27514
H         -2.87088        0.97509        0.97313
H         -2.91476       -1.51950       -2.46035
H         -5.33999       -1.88670       -2.17368
C          4.54675       -0.46194       -2.33266
C          4.33750       -1.20333       -1.18632
C          3.42395       -0.76794       -0.24459
C          2.73373        0.40366       -0.45058
C          2.93157        1.14184       -1.59463
C          3.84384        0.70902       -2.54003
H          5.25779       -0.79972       -3.06884
H          4.87930       -2.12122       -1.02776
H          3.22178       -1.34530        0.64305
H          2.36977        2.04955       -1.74499
H          4.00419        1.28447       -3.43691
H          2.83999        0.63712        2.76320
