111
-148.55132676
P         -2.50024        2.12192        0.40212
P          0.08926        0.28787        0.58406
C         -1.74623        1.78007        2.01378
C         -0.61211        1.00061        2.08360
C         -2.93541        3.91237        0.22801
C         -2.17080        4.55094       -0.91088
C         -2.29405        2.30242        3.16768
H         -3.17373        2.92207        3.10611
C         -1.70867        2.03060        4.39232
H         -2.13708        2.43629        5.29427
C         -0.57665        1.24105        4.45989
H         -0.12201        1.02799        5.41334
C         -0.02629        0.72388        3.30066
H          0.85567        0.10341        3.33408
Pd        -1.07187        1.24082       -1.18449
Cl        -2.52316        1.86420       -2.77134
Cl         0.56019        0.38195       -2.47084
C         -4.46641        3.89082        0.02747
C         -4.16026        1.34975        0.13702
H         -1.09157        4.45201       -0.77069
H         -2.42462        4.07498       -1.85918
H         -2.40400        5.61428       -1.00417
H         -4.75392        4.68652       -0.67489
H         -4.97146        4.13713        0.97296
H         -4.01795        0.53220       -0.58312
C         -4.96985        2.50902       -0.47890
C         -4.74134        0.82641        1.43270
H         -2.66829        4.39143        1.17982
H         -6.03764        2.37616       -0.25050
H         -4.89244        2.47412       -1.57572
H         -5.70466        0.33654        1.27183
H         -4.07041        0.10857        1.90773
H         -4.90235        1.64198        2.13960
C         -1.39473       -3.96452       -0.07473
C         -0.20145       -3.53537       -0.71022
C          0.22585       -2.23632       -0.49263
C         -0.43094       -1.41334        0.38329
C         -1.52578       -1.85658        1.07869
C         -2.00944       -3.14299        0.90484
O         -2.00216       -5.19061       -0.45500
C          0.60580       -4.43070       -1.66233
H          1.06322       -1.83447       -1.03613
H         -2.00935       -1.17337        1.75444
C         -3.20937       -3.61110        1.74270
C          4.58056        0.91268        0.17557
C          4.09558       -0.29393        0.74226
C          2.72517       -0.46595        0.84968
C          1.85853        0.52839        0.47752
C          2.32493        1.73629        0.02985
C          3.68308        1.97551       -0.10022
O          5.95971        1.04047       -0.14015
C          5.03670       -1.41604        1.20873
H          2.31207       -1.38897        1.21757
H          1.60472        2.49181       -0.23503
C          4.14981        3.36147       -0.57233
C          0.46352       -5.91794       -1.29113
C          0.12857       -4.19453       -3.10322
C          2.11081       -4.09078       -1.57454
C         -3.15453       -5.12901        1.99475
C         -3.20513       -2.92727        3.12895
C         -4.51081       -3.24394        1.01372
C         -2.92146       -5.06551       -1.53308
H         -0.56167       -6.26030       -1.40551
H          1.09160       -6.54210       -1.92629
H          0.75712       -6.08435       -0.25522
H          0.69167       -4.80690       -3.80694
H         -0.92582       -4.43759       -3.21330
H          0.25823       -3.14979       -3.38498
H          2.70254       -4.79850       -2.15466
H          2.32528       -3.09793       -1.96672
H          2.45427       -4.13464       -0.54141
H         -3.96953       -5.44811        2.64392
H         -3.23607       -5.68883        1.06644
H         -2.21392       -5.40537        2.46996
H         -2.24642       -3.06875        3.62720
H         -3.39699       -1.85852        3.05507
H         -3.98043       -3.34701        3.76952
H         -5.38243       -3.53687        1.59842
H         -4.56590       -2.17000        0.83937
H         -4.57332       -3.73833        0.04714
H         -3.00802       -4.02214       -1.83921
H         -2.58096       -5.66376       -2.37797
H         -3.89890       -5.43600       -1.22441
C          6.29177        0.64843       -1.46631
C          4.36862       -2.27315        2.30751
C          5.37591       -2.32887        0.02093
C          6.32666       -0.83220        1.81307
C          3.17042        4.45814       -0.09420
C          5.53101        3.71441        0.00867
C          4.19488        3.38281       -2.10798
H          5.07851       -2.98571        2.72699
H          4.00415       -1.64638        3.12103
H          3.53216       -2.84956        1.91465
H          6.01698       -3.15319        0.33241
H          4.46966       -2.75041       -0.41138
H          5.89216       -1.78198       -0.76345
H          6.89476       -0.27588        1.07128
H          6.09356       -0.15401        2.63325
H          6.97138       -1.62181        2.19816
H          3.01038        4.39238        0.98167
H          3.56387        5.45037       -0.31401
H          2.20415        4.38166       -0.59051
H          5.83068        4.72219       -0.27784
H          5.51373        3.66212        1.09675
H          6.29865        3.03104       -0.34458
H          4.88286        2.63455       -2.49368
H          4.51452        4.35721       -2.47639
H          3.21038        3.17020       -2.52421
H          5.41561        0.24225       -1.97348
H          6.66767        1.50724       -2.02172
H          7.07886       -0.10492       -1.43600
