45
-71.81556216
C          2.37642        1.21247        2.40702
P          1.54125        0.85256        0.82571
P         -1.01729        0.18327       -0.88861
C         -0.38846       -0.30077       -2.53196
Cl         1.54106       -1.92241        2.22450
H          3.07836        2.03179        2.28103
H         -0.58727       -1.35388       -2.70939
Cl        -1.30892       -2.68441        0.45795
C          0.48212        2.20074        0.25907
C         -0.62111        1.90143       -0.51013
C         -1.42829        2.91070       -0.99279
C         -1.12347        4.22946       -0.70493
C         -0.01297        4.53076        0.05987
C          0.79445        3.51490        0.54081
H         -2.29124        2.65915       -1.58837
H         -1.75215        5.02068       -1.07895
H          0.22680        5.55791        0.28051
H          1.66944        3.73952        1.12862
Pd         0.13592       -0.99709        0.73775
H          0.68350       -0.13363       -2.58164
H          2.91824        0.33372        2.74481
H         -0.87259        0.28993       -3.30434
C         -5.46623       -0.54990       -0.28450
C         -4.89091       -0.84819       -1.50393
C         -3.53991       -0.62717       -1.70246
C         -2.77594       -0.10843       -0.68183
C         -3.34431        0.19007        0.53553
C         -4.69530       -0.03107        0.73679
H         -6.51829       -0.72475       -0.12883
H         -5.49251       -1.25564       -2.29981
H         -3.07977       -0.86087       -2.64866
H         -2.72717        0.59250        1.32387
H         -5.14274        0.19847        1.68984
C          4.41430       -0.35944       -2.47998
C          4.23905       -1.17807       -1.38136
C          3.37358       -0.79725       -0.37277
C          2.69776        0.39703       -0.46627
C          2.86138        1.21270       -1.56197
C          3.72566        0.83449       -2.57351
H          5.08716       -0.65502       -3.26834
H          4.76891       -2.11384       -1.31231
H          3.19540       -1.43401        0.47902
H          2.30975        2.13687       -1.62371
H          3.85911        1.46983       -3.43363
H          1.64151        1.48425        3.15932
