45
-71.81578908
C          2.34473        1.19340        2.42520
P          1.53237        0.85159        0.82827
P         -1.02241        0.20156       -0.89888
C         -0.41153       -0.27145       -2.55199
Cl         1.48454       -1.95246        2.22406
H          2.88003        0.31016        2.76172
H          0.65345       -0.07051       -2.62337
Cl        -1.27220       -2.71601        0.42255
C          0.48465        2.20706        0.25817
C         -0.61738        1.91692       -0.51639
C         -1.41344        2.93303       -1.00310
C         -1.09912        4.24915       -0.71332
C          0.00988        4.54111        0.05724
C          0.80642        3.51848        0.54188
H         -2.27481        2.68899       -1.60407
H         -1.71893        5.04571       -1.09081
H          0.25733        5.56620        0.27903
H          1.68074        3.73564        1.13355
Pd         0.12848       -0.99328        0.71300
H         -0.92980        0.29978       -3.31684
H          1.59918        1.45854        3.16936
H         -0.57974       -1.33120       -2.72120
C         -5.45726       -0.56169       -0.23163
C         -4.86394       -0.99724       -1.40008
C         -3.51782       -0.76575       -1.61890
C         -2.77687       -0.09861       -0.67013
C         -3.36252        0.33389        0.49797
C         -4.70884        0.10348        0.71914
H         -6.50548       -0.74440       -0.05993
H         -5.44733       -1.52087       -2.13955
H         -3.04287       -1.10894       -2.52348
H         -2.76227        0.84795        1.23258
H         -5.17010        0.43969        1.63316
C          4.44431       -0.35371       -2.44495
C          4.26037       -1.17178       -1.34728
C          3.38249       -0.79326       -0.34848
C          2.70355        0.39860       -0.45086
C          2.87512        1.21327       -1.54609
C          3.75174        0.83720       -2.54773
H          5.12700       -0.64747       -3.22550
H          4.79297       -2.10547       -1.27150
H          3.19616       -1.43048        0.50134
H          2.32055        2.13517       -1.61488
H          3.89191        1.47196       -3.40721
H          3.04968        2.01283        2.31825
