111
-148.55642300
P         -2.56873        2.02002        1.03618
P          0.12909        0.45939        0.48588
C         -1.47424        1.60172        2.41926
C         -0.27541        0.97033        2.16775
C         -3.37582        3.66800        1.27912
C         -2.75391        4.72740        0.39575
C         -1.83556        1.90133        3.71726
H         -2.78305        2.37696        3.91065
C         -0.98754        1.57354        4.76117
H         -1.26916        1.80621        5.77517
C          0.21689        0.94635        4.50577
H          0.87556        0.68858        5.31872
C          0.57210        0.63973        3.20456
H          1.50007        0.13386        2.98932
Pd        -1.34376        1.62101       -0.87916
Cl        -3.02678        2.53970       -2.04015
Cl         0.01254        1.16734       -2.61150
C         -4.85734        3.36870        0.98432
C         -4.06312        0.93531        0.91286
H         -3.23141        5.69920        0.54117
H         -1.68660        4.83890        0.60132
H         -2.85807        4.46471       -0.65774
H         -5.05398        3.57669       -0.07651
H         -5.50766        4.05629        1.54626
H         -4.14205        0.64681       -0.14396
C         -5.21314        1.88623        1.29430
C         -3.93313       -0.28742        1.79480
H         -3.24350        3.92541        2.33767
H         -5.42160        1.77641        2.36744
H         -6.14092        1.58968        0.78179
H         -3.78620        0.00039        2.83743
H         -4.82701       -0.91348        1.74507
H         -3.07701       -0.89721        1.49895
C         -1.20890       -3.84440       -0.17699
C         -1.09617       -3.34240        1.14505
C         -0.67328       -2.03526        1.31680
C         -0.43463       -1.22318        0.23970
C         -0.63634       -1.67417       -1.03693
C         -1.06596       -2.96622       -1.28155
O         -1.42730       -5.23096       -0.39381
C         -1.38948       -4.20287        2.38388
H         -0.51509       -1.63362        2.30185
H         -0.44477       -0.99142       -1.84608
C         -1.34548       -3.39392       -2.73046
C          4.55824        0.62525       -0.54227
C          4.02848       -0.49597        0.14649
C          2.67338       -0.50797        0.43198
C          1.87756        0.56669        0.13198
C          2.40565        1.69814       -0.43088
C          3.75091        1.77261       -0.75319
O          5.88209        0.58358       -1.05516
C          4.88362       -1.70738        0.54986
H          2.21220       -1.37282        0.87771
H          1.74084        2.51752       -0.64333
C          4.29768        3.06678       -1.37544
C         -1.87060       -3.32488        3.56185
C         -2.50875       -5.22030        2.09769
C         -0.10590       -4.93126        2.81026
C         -2.44814       -4.46630       -2.79074
C         -1.84276       -2.19047       -3.56480
C         -0.05021       -3.92690       -3.36125
C         -0.23249       -5.99145       -0.52290
H         -2.18880       -3.94430        4.40010
H         -1.07998       -2.67257        3.92968
H         -2.71683       -2.70633        3.26514
H         -3.40880       -4.71296        1.75183
H         -2.21164       -5.93181        1.33124
H         -2.76158       -5.78726        2.99329
H          0.68416       -4.21660        3.04018
H         -0.27887       -5.54068        3.69691
H          0.25814       -5.58369        2.02034
H         -2.69038       -4.72190       -3.82197
H         -2.14120       -5.38042       -2.28893
H         -3.35682       -4.10920       -2.30722
H         -2.16731       -2.51272       -4.55382
H         -2.68694       -1.70313       -3.07768
H         -1.05916       -1.44898       -3.71243
H         -0.21471       -4.22833       -4.39539
H          0.72551       -3.16148       -3.35178
H          0.32884       -4.78805       -2.81607
H         -0.20392       -6.46611       -1.50350
H          0.64189       -5.35030       -0.40359
H         -0.21514       -6.77491        0.23459
C          5.97613        0.05220       -2.37111
C          4.86081       -2.74500       -0.58291
C          6.33206       -1.28758        0.85905
C          4.32350       -2.36615        1.83168
C          4.15514        2.99121       -2.90339
C          3.50655        4.29402       -0.86841
C          5.77040        3.29235       -0.98818
H          3.84103       -3.07242       -0.78465
H          5.26331       -2.33193       -1.50466
H          5.45161       -3.62233       -0.32080
H          6.35216       -0.52116        1.63313
H          6.92054       -2.13636        1.20654
H          6.82555       -0.88419       -0.02148
H          4.20532       -1.62952        2.62597
H          3.35816       -2.83835        1.65508
H          4.99704       -3.14286        2.19321
H          4.51726        3.90403       -3.37557
H          4.71846        2.15550       -3.31123
H          3.11133        2.85525       -3.18568
H          2.48348        4.29654       -1.24145
H          3.47609        4.31278        0.22068
H          3.97129        5.22004       -1.20623
H          6.13701        4.24166       -1.37792
H          6.40984        2.50677       -1.38267
H          5.88474        3.30340        0.09521
H          6.61581       -0.83015       -2.36541
H          4.98709       -0.21756       -2.74368
H          6.42455        0.79265       -3.03329
