105
-153.06293784
Cl        -0.01420        2.01034        3.09760
Pd        -0.46144        1.33229        1.00211
P         -1.10316        0.52492       -1.12805
N         -0.69399       -0.97985       -1.95082
C          0.21439       -1.98279       -1.61445
C          0.34669       -2.47947       -0.29322
C          1.28909       -3.49683       -0.03029
C          1.39328       -4.05495        1.36998
C          2.62720       -4.93673        1.62181
C          2.86810       -5.89615        0.45360
C          3.07926       -5.11332       -0.85008
C          2.05973       -4.02444       -1.07072
C          1.88197       -3.54631       -2.36267
C          0.97612       -2.55480       -2.63218
H          0.85870       -2.18658       -3.63646
H          2.47682       -3.96083       -3.15891
H          4.07825       -4.66154       -0.85233
H          3.72284       -6.55628        0.65893
H          3.50969       -4.29768        1.75216
H          1.39238       -3.22203        2.08165
C         -0.65518       -2.12557        0.74203
C         -0.24355       -1.51765        1.95857
C         -1.18009       -1.38584        2.98806
C         -2.47193       -1.81453        2.82716
C         -2.89657       -2.39976        1.64050
C         -4.32427       -2.88424        1.55812
C         -4.78117       -3.26739        0.14130
C         -3.68999       -4.05573       -0.58756
C         -2.40121       -3.22757       -0.69544
C         -1.98775       -2.55555        0.59173
H         -1.57783       -3.86138       -1.04771
H         -4.03589       -4.37351       -1.58140
H         -5.01083       -2.35915       -0.42919
H         -4.98393       -2.11292        1.97495
H         -3.17811       -1.70059        3.63219
H         -0.87698       -0.91602        3.90725
N          1.04844       -1.00223        2.13960
P          1.60399        0.20884        0.98612
C          2.62298       -0.35142       -0.36520
C          2.44189        0.22251       -1.59866
C          3.26639       -0.13794       -2.64864
C          4.28763       -1.05964       -2.45802
C          4.46232       -1.61488       -1.19672
C          3.63447       -1.25491       -0.14841
H          3.76814       -1.67417        0.83616
H          5.24888       -2.33324       -1.04137
C          5.14882       -1.48092       -3.59693
H          3.11693        0.29172       -3.62429
H          1.64874        0.93819       -1.73381
C          2.53276        1.52401        1.78218
C          3.24181        1.27460        2.93239
C          3.95758        2.29558        3.53113
C          3.97532        3.56747        2.97434
C          3.25444        3.79717        1.81017
C          2.54012        2.77515        1.21176
H          1.98230        2.94941        0.30457
H          3.25221        4.78272        1.37688
C          4.71847        4.67498        3.63660
H          4.50559        2.11033        4.43915
H          3.23793        0.28377        3.35677
H          1.19594       -0.55834        3.03675
H         -0.97854       -0.88907       -2.91804
C         -0.60823        1.90207       -2.17986
C         -0.86837        3.19517       -1.79394
C         -0.47169        4.25196       -2.59034
C          0.19539        4.02253       -3.78546
C          0.43555        2.71131       -4.17191
C          0.03446        1.65753       -3.37149
H          0.23729        0.64264       -3.66912
H          0.94043        2.52065       -5.10358
C          0.60563        5.15854       -4.65648
H         -0.67972        5.26410       -2.28787
H         -1.39028        3.37242       -0.86915
C         -2.89950        0.52991       -1.08995
C         -3.57290        0.82156       -2.25250
C         -4.95647        0.82199       -2.26589
C         -5.67389        0.52868       -1.11429
C         -4.97567        0.24663        0.05119
C         -3.59324        0.23244        0.05705
H         -3.04744        0.01047        0.95986
H         -5.52194        0.04325        0.95613
C         -7.16249        0.55685       -1.11645
H         -5.48766        1.05640       -3.17250
H         -3.01313        1.05191       -3.14548
Cl        -2.33573        2.58227        0.93580
H          3.06440       -5.79562       -1.70969
H          2.52470       -5.49132        2.56528
H          2.00139       -6.56019        0.34388
H          0.48089       -4.62418        1.58377
H         -3.48200       -4.98201       -0.03741
H         -2.52662       -2.45432       -1.46219
H         -4.43318       -3.74879        2.22388
H         -5.71974       -3.83861        0.17335
H          5.27896       -0.66864       -4.31340
H          6.13958       -1.78029       -3.25223
H          4.70585       -2.32716       -4.12392
H          5.58850        4.29835        4.17628
H          5.07239        5.40390        2.90621
H          4.07928        5.19655        4.35024
H          1.50099        4.91232       -5.22902
H         -0.18677        5.41104       -5.36237
H          0.82586        6.04845       -4.06515
H         -7.56023        0.30455       -2.10044
H         -7.57015       -0.15927       -0.40143
H         -7.53092        1.54782       -0.84793
