111
-148.55946845
P         -2.58144        2.25048        0.34099
P         -0.01124        0.39871        0.46063
C         -1.70324        2.03183        1.90970
C         -0.58690        1.22563        1.95704
C         -3.18967        3.98311        0.11650
C         -2.41996        4.67858       -0.98548
C         -2.16308        2.64221        3.05894
H         -3.04841        3.25560        3.01854
C         -1.49359        2.45029        4.25523
H         -1.85054        2.92751        5.15327
C         -0.37228        1.64424        4.30016
H          0.14807        1.49308        5.23159
C          0.07977        1.02632        3.14798
H          0.95000        0.38933        3.16868
Pd        -1.16998        1.42745       -1.27646
Cl        -2.80914        1.62255       -2.80652
Cl         0.35159        0.61256       -2.70966
C         -4.68911        3.78972       -0.18248
C         -4.18460        1.33026        0.31171
H         -2.52453        4.13843       -1.92858
H         -2.78263        5.69679       -1.14527
H         -1.35321        4.73010       -0.75393
H         -4.83275        3.78779       -1.27179
H         -5.26835        4.64851        0.18933
H         -4.23796        0.84473       -0.67141
C         -5.22958        2.45682        0.40891
C         -4.25383        0.30752        1.42598
H         -3.04860        4.49629        1.07616
H         -5.49386        2.60450        1.46511
H         -6.16371        2.15582       -0.08949
H         -3.44121       -0.41879        1.35051
H         -4.16701        0.79107        2.40063
H         -5.20062       -0.23730        1.41026
C         -1.13908       -4.01399        0.36456
C         -0.18819       -3.54179        1.30798
C          0.12705       -2.19275        1.30008
C         -0.51945       -1.31886        0.46516
C         -1.53605       -1.74964       -0.34767
C         -1.89718       -3.08521       -0.39651
O         -1.26775       -5.40571        0.12159
C          0.50841       -4.43616        2.34753
H          0.90477       -1.81101        1.94027
H         -2.03819       -1.03432       -0.97498
C         -3.08860       -3.47514       -1.28770
C          4.49017        0.70785       -0.16956
C          3.76694       -0.38968       -0.70146
C          2.39856       -0.43318       -0.49537
C          1.76230        0.52117        0.25353
C          2.46972        1.53375        0.84697
C          3.84319        1.62964        0.69345
O          5.85010        0.90351       -0.52944
C          4.42935       -1.50169       -1.52921
H          1.79969       -1.21064       -0.93817
H          1.92966        2.25537        1.43463
C          4.60346        2.73343        1.44592
C          0.43824       -3.75740        3.73336
C         -0.16766       -5.81122        2.48630
C          1.98291       -4.62593        1.95458
C         -4.26169       -2.50245       -1.03717
C         -2.67011       -3.38331       -2.76466
C         -3.60796       -4.89131       -0.98487
C         -0.37034       -5.87342       -0.87189
H          0.86259       -4.40131        4.50330
H          0.99121       -2.81981        3.75367
H         -0.59535       -3.54460        4.00488
H          0.27880       -6.38872        3.29547
H         -1.23070       -5.69735        2.69566
H         -0.06823       -6.39361        1.57347
H          2.50315       -5.24708        2.68323
H          2.07263       -5.10457        0.98123
H          2.49836       -3.66744        1.90365
H         -4.01659       -1.48734       -1.34346
H         -5.14418       -2.80491       -1.60026
H         -4.52761       -2.48487        0.01920
H         -2.33734       -2.37585       -3.01291
H         -1.85214       -4.06627       -2.98526
H         -3.50283       -3.63277       -3.42161
H         -2.86665       -5.64575       -1.23718
H         -3.84388       -4.99568        0.07359
H         -4.50874       -5.11040       -1.55771
H         -0.50147       -6.94836       -0.99767
H         -0.56765       -5.37376       -1.81883
H          0.65695       -5.66779       -0.57540
C          6.03179        1.71495       -1.68311
C          4.41561       -1.10207       -3.01249
C          5.87226       -1.75987       -1.05960
C          3.65964       -2.83340       -1.37098
C          6.03203        2.28138        1.79993
C          4.64829        4.00209        0.58115
C          3.89633        3.06926        2.77919
H          3.39435       -0.94243       -3.35779
H          4.96715       -0.17964       -3.17723
H          4.86471       -1.87862       -3.63103
H          6.31977       -2.58944       -1.60645
H          6.50204       -0.88723       -1.21324
H          5.89212       -2.00332        0.00217
H          2.67229       -2.78730       -1.82805
H          4.19634       -3.65021       -1.85297
H          3.53945       -3.08764       -0.31863
H          6.62483        2.10233        0.90647
H          6.54755        3.03806        2.39082
H          6.01006        1.35734        2.37672
H          3.64057        4.34653        0.35007
H          5.17074        4.80761        1.09656
H          5.15923        3.81932       -0.36108
H          3.73397        2.16778        3.36956
H          2.93314        3.55031        2.61591
H          4.49874        3.75499        3.37457
H          6.56136        1.14867       -2.44904
H          5.06711        2.04136       -2.07382
H          6.63440        2.58606       -1.42656
