171
-217.83830015
P         -1.50011        0.28893       -0.30931
P          1.72583       -0.60605       -0.15408
C         -0.73310        1.01634       -1.76904
C          1.00102       -1.70117       -1.39946
C         -0.00710        0.22113       -2.64677
C          0.59870        0.81885       -3.76972
C          0.42848        2.17530       -3.98919
C         -0.28888        2.95067       -3.10481
C         -0.85685        2.36739       -1.98956
C          1.22359       -3.04948       -1.24656
C          0.60264       -3.96324       -2.07499
C         -0.27390       -3.52028       -3.04138
C         -0.52112       -2.16939       -3.21279
C          0.15391       -1.23586       -2.40258
Cl         1.37177       -0.41487        3.11298
Cl        -1.75606       -1.09894        2.67789
C         -1.50832       -1.73927       -4.24135
C          1.40649        0.01302       -4.72685
H         -0.40442        4.00706       -3.28368
H         -1.38794        2.97811       -1.27955
H          1.89033       -3.39549       -0.47468
H          0.78926       -5.01786       -1.95350
H          0.86962        2.62475       -4.86249
H         -0.78007       -4.22756       -3.67666
C         -4.20128       -3.18054       -1.40765
C         -3.11221       -3.40999       -0.57656
C         -2.30125       -2.32925       -0.25820
C         -2.57916       -1.07560       -0.74391
C         -3.65840       -0.86805       -1.56608
C         -4.49263       -1.92111       -1.91968
H         -4.84120       -4.00814       -1.64911
H         -1.44277       -2.46144        0.37567
H         -3.85449        0.12294       -1.93474
C         -3.93606        3.55590        1.74120
C         -4.10873        3.31642        0.38339
C         -3.36634        2.29670       -0.19758
C         -2.46841        1.56290        0.53991
C         -2.31776        1.81860        1.88139
C         -3.05221        2.81169        2.51232
H         -4.50612        4.33491        2.20940
H         -3.47182        2.09412       -1.24957
H         -1.63802        1.22368        2.46181
C          5.06068       -2.67390        2.11337
C          3.75941       -3.13639        2.26277
C          2.75683       -2.48877        1.55337
C          3.05259       -1.42769        0.73439
C          4.34404       -0.98105        0.60201
C          5.37926       -1.59939        1.29195
H          5.84770       -3.15709        2.66273
H          1.72746       -2.78615        1.66082
H          4.53568       -0.13646       -0.03502
C          2.98583        3.56104       -1.38231
C          2.04111        3.41692       -0.37424
C          1.67263        2.12749       -0.01503
C          2.20704        1.04197       -0.66699
C          3.13259        1.20163       -1.66813
C          3.55164        2.47414       -2.03812
H          3.30136        4.55097       -1.65613
H          0.96217        1.96196        0.77517
H          3.52555        0.32412       -2.15273
Pd        -0.03885       -0.44431        1.36849
C         -4.05401       -5.22451        0.86910
C         -2.85570       -4.81160       -0.00451
C         -1.58359       -4.84605        0.86741
C         -2.68381       -5.81520       -1.15880
H         -4.20021       -4.51199        1.68074
H         -4.97387       -5.26150        0.28663
H         -3.89627       -6.20947        1.30811
H         -1.40854       -5.84824        1.25812
H         -0.70458       -4.55889        0.29175
H         -1.67278       -4.17210        1.71926
H         -2.48514       -6.81686       -0.77802
H         -3.57850       -5.86571       -1.77806
H         -1.85052       -5.52719       -1.79804
C         -6.72808       -0.80698       -1.97836
C         -5.72759       -1.64805       -2.79085
C         -6.41712       -2.95551       -3.22639
C         -5.31651       -0.87624       -4.05998
H         -7.62070       -0.58604       -2.56329
H         -7.03565       -1.33807       -1.07778
H         -6.28423        0.13895       -1.67087
H         -5.72574       -3.59877       -3.77066
H         -6.79891       -3.50592       -2.36688
H         -7.26260       -2.74681       -3.88185
H         -6.18130       -0.68665       -4.69564
H         -4.86997        0.08701       -3.81736
H         -4.59312       -1.44620       -4.64172
C         -5.83840        5.18494        0.33296
C         -5.05144        4.15121       -0.49524
C         -6.05919        3.22021       -1.19562
C         -4.21796        4.89984       -1.55213
H         -6.44039        4.69649        1.09903
H         -5.16716        5.89323        0.81825
H         -6.51395        5.75651       -0.30341
H         -6.62450        2.64412       -0.46330
H         -6.76722        3.79218       -1.79506
H         -5.55582        2.51874       -1.85954
H         -3.48059        5.54513       -1.07478
H         -3.68373        4.20456       -2.19887
H         -4.85372        5.52090       -2.18285
C         -3.76750        4.16694        4.54678
C         -2.89251        3.01041        4.02713
C         -1.42184        3.32741        4.35540
C         -3.31168        1.71510        4.74782
H         -4.82440        3.97151        4.36657
H         -3.63589        4.29857        5.62072
H         -3.50133        5.10713        4.06399
H         -0.76036        2.52219        4.03804
H         -1.10520        4.24208        3.85584
H         -1.28373        3.46615        5.42744
H         -4.34414        1.45971        4.51067
H         -2.68422        0.87600        4.44949
H         -3.22959        1.82501        5.82888
C          1.95841       -4.66949        3.20210
C          3.45646       -4.30267        3.21331
C          3.84820       -3.89828        4.64591
C          4.26385       -5.53953        2.77930
H          1.34647       -3.83092        3.53414
H          1.63317       -4.96118        2.20357
H          1.75974       -5.50620        3.87155
H          3.29848       -3.00992        4.95657
H          3.62641       -4.69797        5.35231
H          4.91205       -3.67476        4.71669
H          5.33554       -5.34932        2.82279
H          4.05051       -6.39081        3.42555
H          4.01485       -5.82143        1.75636
C          7.32425       -0.67432        2.57370
C          6.83364       -1.11946        1.18392
C          6.96874        0.07149        0.21395
C          7.71348       -2.27169        0.66536
H          7.29654       -1.49813        3.28594
H          8.34962       -0.30794        2.52699
H          6.69649        0.12643        2.96421
H          6.37592        0.92190        0.55045
H          8.00580        0.39972        0.14572
H          6.64311       -0.20214       -0.78929
H          8.75054       -1.95350        0.55996
H          7.69392       -3.12262        1.34522
H          7.36446       -2.61352       -0.30889
C          0.37612        4.27398        1.34888
C          1.47002        4.65477        0.33231
C          0.84849        5.60778       -0.70524
C          2.60719        5.37290        1.08040
H         -0.44493        3.74700        0.86399
H          0.77765        3.63783        2.13712
H         -0.03773        5.16461        1.82118
H          0.44534        6.49804       -0.22279
H          1.58339        5.93220       -1.44068
H          0.03336        5.11895       -1.23655
H          3.38493        5.70246        0.39227
H          2.23425        6.24970        1.60948
H          3.06680        4.70735        1.81090
C          5.14265        1.37395       -3.69329
C          4.63155        2.70351       -3.10489
C          5.82394        3.43911       -2.46520
C          4.05021        3.55319       -4.24900
H          4.33577        0.81826       -4.16913
H          5.90839        1.55384       -4.44774
H          5.58362        0.74632       -2.91942
H          5.52768        4.41358       -2.07883
H          6.23272        2.86089       -1.63667
H          6.62056        3.59699       -3.19202
H          3.20570        3.04608       -4.71333
H          3.70285        4.52057       -3.88829
H          4.79907        3.73358       -5.02001
H         -1.10835       -1.87001       -5.24770
H          1.91407       -0.80890       -4.21961
H         -1.78445       -0.69114       -4.11843
H         -2.42192       -2.33069       -4.16485
H          2.16985        0.62434       -5.21005
H          0.77603       -0.40990       -5.50972
