111
-148.55356822
P         -1.53677        2.65245        1.14059
P         -0.34372       -0.22123        0.56269
C         -1.00814        1.59600        2.52088
C         -0.56130        0.31549        2.27000
C         -0.44229        4.13390        0.98409
C          0.37022        4.06867       -0.29198
C         -1.02651        2.07477        3.81536
H         -1.33867        3.08909        4.00268
C         -0.62213        1.25887        4.85797
H         -0.64028        1.63114        5.86930
C         -0.18957       -0.02872        4.60418
H          0.13072       -0.66121        5.41571
C         -0.14875       -0.49870        3.30361
H          0.22038       -1.48797        3.08265
Pd        -1.67751        1.21017       -0.66222
Cl        -2.82638        2.84736       -1.67719
Cl        -1.62741       -0.29201       -2.33085
C         -1.43182        5.31442        1.04651
C         -3.16943        3.47973        1.42844
H         -0.28532        4.00919       -1.16314
H          1.00131        4.95259       -0.41004
H          1.01649        3.18870       -0.31014
H         -1.65459        5.64004        0.02113
H         -0.96293        6.18200        1.53494
H         -3.69026        3.45335        0.46237
C         -2.75821        4.92541        1.76050
C         -4.00116        2.78792        2.48777
H          0.20807        4.12680        1.86839
H         -2.63336        5.01895        2.84801
H         -3.56699        5.62351        1.49547
H         -4.97161        3.27385        2.61165
H         -4.17697        1.74085        2.23071
H         -3.50176        2.80722        3.45664
C         -0.76641       -4.70882       -0.07947
C         -1.90636       -3.93448        0.25711
C         -1.73754       -2.57712        0.48031
C         -0.51511       -1.98242        0.31003
C          0.56590       -2.70704       -0.11966
C          0.46558       -4.06648       -0.36321
O         -0.85162       -6.12651       -0.10123
C         -3.30836       -4.54957        0.39020
H         -2.56385       -1.95998        0.78925
H          1.49802       -2.19018       -0.26773
C          1.68553       -4.81690       -0.92060
C          3.62351        1.40624       -0.97783
C          3.29128        1.54343        0.39441
C          2.09825        0.99900        0.83827
C          1.22672        0.40335       -0.03527
C          1.49087        0.37245       -1.37880
C          2.66418        0.89758       -1.89006
O          4.92430        1.75156       -1.43142
C          4.20801        2.26011        1.39782
H          1.82958        1.03894        1.87895
H          0.74157       -0.04511       -2.02813
C          2.87475        0.91082       -3.41192
C         -3.52253       -5.02325        1.83546
C         -4.39602       -3.50704        0.04492
C         -3.49035       -5.72622       -0.58607
C          2.53909       -3.88153       -1.80794
C          2.55230       -5.31666        0.24470
C          1.25258       -5.99968       -1.80596
C         -0.54365       -6.74473        1.14169
H         -3.42305       -4.19140        2.53238
H         -4.51570       -5.45341        1.96218
H         -2.79158       -5.77823        2.11479
H         -4.20370       -3.05463       -0.92765
H         -5.38077       -3.97236        0.00896
H         -4.44468       -2.71360        0.78914
H         -3.29432       -5.40859       -1.60963
H         -2.81075       -6.54261       -0.35424
H         -4.50548       -6.11981       -0.54107
H          3.32955       -4.43875       -2.31019
H          1.92377       -3.40968       -2.57351
H          3.02168       -3.09864       -1.22467
H          3.43089       -5.84710       -0.12164
H          2.89261       -4.48203        0.85722
H          1.99498       -5.99331        0.88825
H          0.59963       -5.65849       -2.60861
H          2.11585       -6.48969       -2.25554
H          0.71175       -6.74805       -1.23216
H          0.31579       -7.40374        1.02013
H         -0.31973       -5.99045        1.89705
H         -1.39083       -7.34720        1.46908
C          5.85040        0.67300       -1.40530
C          3.38116        2.88803        2.54310
C          5.19187        1.24681        2.00119
C          4.97729        3.40823        0.71949
C          1.52028        1.03971       -4.14663
C          3.73340        2.11385       -3.84221
C          3.54533       -0.40168       -3.84400
H          4.01404        3.49773        3.18752
H          2.59437        3.52844        2.14621
H          2.92108        2.12867        3.17368
H          5.81330        0.79532        1.23152
H          5.84911        1.72517        2.72690
H          4.65590        0.44455        2.50790
H          5.65017        3.03479       -0.04862
H          4.28659        4.10683        0.24827
H          5.57695        3.95976        1.44316
H          1.67192        1.18271       -5.21616
H          0.90941        0.14617       -4.02793
H          0.95515        1.89268       -3.77162
H          3.82728        2.16060       -4.92684
H          3.28566        3.04625       -3.49978
H          4.73662        2.05385       -3.42772
H          2.92348       -1.25616       -3.57917
H          4.50943       -0.53087       -3.35779
H          3.70539       -0.42224       -4.92165
H          5.37540       -0.22750       -1.01375
H          6.21770        0.48125       -2.41330
H          6.70091        0.93790       -0.77733
