111
-148.54850656
P         -2.13284        2.52061        0.20881
P         -0.22947        0.00066        0.50188
C         -1.68324        1.92218        1.85634
C         -0.86357        0.82222        1.98005
C         -1.81576        4.33947        0.08573
C         -0.95911        4.65723       -1.12070
C         -2.10717        2.59777        2.98271
H         -2.72753        3.47270        2.87648
C         -1.71356        2.16270        4.23631
H         -2.04622        2.68800        5.11666
C         -0.88184        1.06650        4.35856
H         -0.56227        0.73616        5.33323
C         -0.44656        0.40157        3.22632
H          0.23807       -0.42858        3.30483
Pd        -1.01551        1.21025       -1.32716
Cl        -2.23861        2.19235       -2.93046
Cl         0.30734       -0.04108       -2.64280
C         -3.23665        4.93609        0.01740
C         -3.94850        2.47703       -0.15243
H         -0.74573        5.72642       -1.19204
H         -0.00702        4.12281       -1.08587
H         -1.46689        4.36039       -2.03999
H         -3.21718        5.86325       -0.57391
H         -3.56714        5.23360        1.02341
H         -4.07635        1.78208       -0.99392
C         -4.25593        3.92660       -0.58160
C         -4.74691        2.00364        1.04325
H         -1.30193        4.63443        1.01096
H         -5.28185        4.18842       -0.28446
H         -4.23714        4.00140       -1.67886
H         -4.63963        2.69638        1.87911
H         -5.81224        1.93408        0.81097
H         -4.40943        1.02126        1.38213
C         -1.20696       -4.46187        0.32288
C         -0.58496       -3.81988       -0.77704
C         -0.34181       -2.46071       -0.68733
C         -0.60713       -1.75685        0.45798
C         -1.12121       -2.39648        1.55672
C         -1.39785       -3.75349        1.53625
O         -1.67288       -5.79793        0.19878
C         -0.19979       -4.56054       -2.06755
H          0.03754       -1.91733       -1.53364
H         -1.32492       -1.81495        2.43685
C         -1.92191       -4.43125        2.81269
C          4.15628        1.12231        0.02396
C          3.75716       -0.21364       -0.24741
C          2.42129       -0.54286       -0.09333
C          1.51551        0.37472        0.36821
C          1.91470        1.63408        0.73547
C          3.23957        2.02408        0.62814
O          5.43706        1.57804       -0.38105
C          4.71774       -1.31740       -0.72047
H          2.06900       -1.52406       -0.35696
H          1.17102        2.31971        1.10693
C          3.63079        3.39783        1.19907
C          0.16179       -6.02934       -1.78152
C         -1.36685       -4.48405       -3.06329
C          1.04543       -3.91272       -2.71550
C         -3.45707       -4.37895        2.82402
C         -1.44020       -5.89089        2.90172
C         -1.39589       -3.70681        4.07301
C         -3.00499       -5.90395       -0.28806
H         -0.69114       -6.58118       -1.39506
H          0.49724       -6.53384       -2.68730
H          0.96086       -6.09056       -1.04343
H         -1.60319       -3.44677       -3.29955
H         -1.12041       -4.99444       -3.99394
H         -2.26429       -4.94291       -2.65507
H          1.86314       -3.84770       -1.99875
H          1.39131       -4.50276       -3.56382
H          0.83428       -2.91179       -3.08836
H         -3.80764       -3.34774        2.78781
H         -3.87580       -4.90111        1.96722
H         -3.85669       -4.84007        3.72688
H         -1.83998       -6.49098        2.08806
H         -0.35304       -5.93994        2.85023
H         -1.75685       -6.35184        3.83699
H         -0.31072       -3.61239        4.04153
H         -1.82504       -2.71112        4.17508
H         -1.65721       -4.26051        4.97454
H         -3.43369       -4.91298       -0.44248
H         -3.00940       -6.45202       -1.23000
H         -3.61251       -6.45562        0.42925
C          5.43407        2.13153       -1.68645
C          6.19305       -0.95054       -0.48419
C          4.44414       -2.61553        0.07148
C          4.48630       -1.58299       -2.21741
C          3.01607        3.55745        2.60776
C          5.15347        3.55593        1.35197
C          3.08660        4.50888        0.28642
H          6.48985       -0.09935       -1.09234
H          6.36181       -0.69006        0.56009
H          6.85020       -1.78181       -0.73853
H          5.16359       -3.39016       -0.19277
H          4.52289       -2.43544        1.14321
H          3.45176       -3.01430       -0.13097
H          3.45027       -1.86048       -2.40764
H          4.70456       -0.69840       -2.81228
H          5.12292       -2.39258       -2.57327
H          1.92773        3.56751        2.57646
H          3.32615        2.73922        3.25709
H          3.33614        4.49193        3.06788
H          5.56734        2.73806        1.94077
H          5.64959        3.55412        0.38440
H          5.40331        4.49324        1.84855
H          3.49224        4.42699       -0.72008
H          3.34618        5.49348        0.67451
H          2.00131        4.45436        0.21342
H          6.44237        2.45889       -1.94077
H          5.10477        1.38531       -2.40751
H          4.75690        2.98281       -1.73050
