58
-89.86647382
P          1.74769       -0.05969        0.84196
C          2.50635        1.55159        0.57929
C          3.72483        1.67718       -0.04715
C          4.25902        2.93342       -0.26786
C          3.56568        4.05706        0.13688
C          2.33909        3.92794        0.75780
C          1.80740        2.66964        0.97667
H          0.84530        2.55416        1.44965
H          4.24417        0.79434       -0.38102
C          2.80145       -1.41602        0.31267
C          2.33727       -2.35647       -0.57914
C          3.15977       -3.39685       -0.97171
C          4.44024       -3.49184       -0.46372
C          4.89871       -2.55239        0.43839
C          4.07386       -1.51272        0.82950
H          4.41654       -0.77520        1.53840
H          1.33460       -2.27677       -0.96668
C          1.39174       -0.25717        2.64128
C         -0.00080       -0.78064        2.94359
C         -1.11256        0.19048        2.55396
P         -1.69437       -0.07272        0.83227
C         -2.44291       -1.70320        0.66017
C         -2.87473       -2.40476        1.76428
C         -3.45461       -3.65076        1.60640
C         -3.60425       -4.18731        0.34306
C         -3.17981       -3.47886       -0.76280
C         -2.60171       -2.23436       -0.59927
H         -2.28683       -1.65912       -1.45341
H         -2.76312       -1.97882        2.74764
C         -2.86809        1.21802        0.41589
C         -4.20019        0.91602        0.25077
C         -5.09494        1.91726       -0.08135
C         -4.64654        3.21307       -0.24696
C         -3.30793        3.51030       -0.08199
C         -2.41540        2.50714        0.25107
H         -1.36569        2.72225        0.37394
H         -4.53249       -0.10187        0.37596
Pd         0.02699        0.15251       -0.70795
Cl         1.65691        0.55073       -2.20498
Cl        -1.60893        0.27159       -2.25012
H         -1.99366        0.08121        3.19074
H         -0.78467        1.22636        2.65411
H         -0.15496       -1.73892        2.42809
H         -0.07235       -1.01368        4.01774
H          2.16302       -0.92025        3.04098
H          1.54453        0.71621        3.11178
H          5.21133        3.03450       -0.76196
H          1.79390        4.80453        1.06707
H          2.80105       -4.13094       -1.67438
H          5.89677       -2.62794        0.83775
H         -3.79084       -4.20124        2.46974
H         -3.30231       -3.89124       -1.75084
H         -6.13878        1.68489       -0.21416
H         -2.95716        4.52031       -0.21656
H          3.97978        5.03675       -0.03759
H          5.08227       -4.30139       -0.77062
H         -4.05671       -5.15783        0.21995
H         -5.34220        3.99357       -0.50885
