111
-148.54825902
P         -2.69793        1.93468       -0.23121
P          0.04956        0.48057        0.39450
C         -1.96896        2.05347        1.42700
C         -0.74094        1.47756        1.67077
C         -3.60846        3.48882       -0.66550
C         -2.79245        4.42267       -1.53216
C         -2.62730        2.71770        2.44272
H         -3.59831        3.14689        2.25965
C         -2.04604        2.81306        3.69546
H         -2.56023        3.33215        4.48783
C         -0.81017        2.24290        3.93265
H         -0.35913        2.31493        4.90863
C         -0.15768        1.56708        2.91742
H          0.79731        1.09552        3.09020
Pd        -1.04949        1.01844       -1.58043
Cl        -2.08676        1.92477       -3.34172
Cl         0.70958        0.03089       -2.58255
C         -4.89529        2.94705       -1.31219
C         -4.07376        0.70234       -0.38096
H         -1.85359        4.69588       -1.04508
H         -2.54262        3.95505       -2.48409
H         -3.34000        5.34152       -1.75385
H         -4.72376        2.82541       -2.39075
H         -5.71041        3.68131       -1.22158
H         -3.82503        0.07345       -1.24633
C         -5.30270        1.57915       -0.69237
C         -4.19830       -0.13539        0.87308
H         -3.84993        3.97722        0.28682
H         -5.85782        1.75255        0.23964
H         -5.99910        1.04154       -1.35343
H         -5.02590       -0.84484        0.79994
H         -3.28422       -0.70198        1.06187
H         -4.37759        0.49669        1.74482
C         -1.26210       -3.85400        0.93659
C         -0.62229       -3.45201       -0.26336
C         -0.25707       -2.12455       -0.39480
C         -0.42429       -1.23431        0.63181
C         -0.93936       -1.64443        1.83363
C         -1.33890       -2.95543        2.03132
O         -1.86027       -5.13888        1.02802
C         -0.35028       -4.41544       -1.42869
H          0.15352       -1.75571       -1.31744
H         -1.04322       -0.91583        2.61772
C         -1.88134       -3.37263        3.40724
C          4.56230        0.98950        0.08184
C          3.73637        2.13135        0.24715
C          2.36575        1.94486        0.33291
C          1.82539        0.68582        0.34165
C          2.62813       -0.42318        0.29025
C          4.00433       -0.30918        0.19569
O          5.93724        1.14626       -0.23766
C          4.30075        3.55989        0.29668
H          1.69517        2.78572        0.38129
H          2.15935       -1.39113        0.30401
C          4.85458       -1.58869        0.16701
C         -0.10857       -5.84841       -0.92125
C         -1.54205       -4.38790       -2.39749
C          0.92203       -3.99118       -2.19831
C         -1.55188       -4.84593        3.70865
C         -1.23455       -2.52777        4.52854
C         -3.40122       -3.15135        3.44422
C         -3.21380       -5.17814        0.59318
H          0.71006       -5.86749       -0.20254
H         -0.99152       -6.25056       -0.43108
H          0.14561       -6.51745       -1.74299
H         -1.37341       -5.05400       -3.24319
H         -2.45958       -4.69782       -1.90288
H         -1.69873       -3.38183       -2.78608
H          1.76645       -3.88007       -1.51891
H          1.18972       -4.73833       -2.94499
H          0.78088       -3.04931       -2.72610
H         -0.47855       -5.02047        3.64168
H         -1.87914       -5.12385        4.71021
H         -2.04286       -5.51411        3.00553
H         -0.14749       -2.55830        4.45889
H         -1.55273       -1.48714        4.48439
H         -1.51775       -2.90660        5.51032
H         -3.81448       -3.44193        4.40972
H         -3.64226       -2.10189        3.27721
H         -3.90353       -3.73285        2.67494
H         -3.31072       -5.87275       -0.24100
H         -3.84829       -5.53162        1.40581
H         -3.54224       -4.18613        0.28028
C          6.20187        1.20776       -1.63368
C          4.35274        4.13519       -1.12679
C          3.40241        4.47042        1.16462
C          5.70393        3.58216        0.92996
C          4.99320       -2.06981       -1.28548
C          6.24429       -1.34855        0.78386
C          4.18283       -2.70859        0.99498
H          4.73461        5.15576       -1.12204
H          4.99566        3.53906       -1.76980
H          3.35881        4.14817       -1.57341
H          3.23854        4.02955        2.14762
H          3.86525        5.44649        1.30854
H          2.43289        4.64250        0.69967
H          5.68347        3.13602        1.92369
H          6.41955        3.02598        0.32974
H          6.07554        4.60228        1.02348
H          5.48401       -1.32166       -1.90328
H          5.57761       -2.98793       -1.33930
H          4.01368       -2.26617       -1.72088
H          6.81523       -0.62491        0.20773
H          6.15201       -0.96761        1.80039
H          6.82246       -2.27159        0.81846
H          3.95068       -2.36042        2.00111
H          4.84159       -3.57218        1.08345
H          3.26109       -3.05744        0.53196
H          5.27241        1.13398       -2.19984
H          6.69888        2.14834       -1.87061
H          6.86586        0.39140       -1.91724
