111
-148.55504955
P         -2.61185        2.00215        0.17484
P          0.11653        0.42957        0.51280
C         -1.82745        1.90053        1.80673
C         -0.61782        1.25310        1.93935
C         -3.44065        3.63369       -0.09908
C         -2.64060        4.50812       -1.03974
C         -2.43456        2.45715        2.91420
H         -3.38967        2.94519        2.80974
C         -1.82076        2.37123        4.15204
H         -2.29372        2.80637        5.01726
C         -0.60537        1.72653        4.28072
H         -0.12916        1.65751        5.24490
C         -0.00407        1.16068        3.17084
H          0.93640        0.63888        3.25587
Pd        -0.99830        1.31293       -1.31644
Cl        -2.35621        1.84802       -3.01681
Cl         0.70649        0.57874       -2.58859
C         -4.83012        3.22643       -0.62417
C         -4.05107        0.85840       -0.03717
H         -2.52424        4.02679       -2.01179
H         -3.13139        5.47002       -1.20540
H         -1.63905        4.70051       -0.64761
H         -4.80121        3.21327       -1.72249
H         -5.57974        3.98689       -0.35723
H         -3.90532        0.36465       -1.00741
C         -5.25053        1.82246       -0.10235
C         -4.12026       -0.16107        1.07898
H         -3.52939        4.10859        0.88619
H         -5.68093        1.91971        0.90388
H         -6.05111        1.39553       -0.72543
H         -4.98758       -0.81621        0.96917
H         -3.22570       -0.78648        1.09782
H         -4.19605        0.33170        2.05002
C         -1.44110       -3.84316        0.27346
C         -0.84307       -3.23987       -0.86215
C         -0.39049       -1.93826       -0.74594
C         -0.43945       -1.27231        0.44950
C         -0.91122       -1.89033        1.57747
C         -1.38812       -3.18984        1.53182
O         -2.13050       -5.07783        0.14212
C         -0.71745       -3.94925       -2.21876
H         -0.00751       -1.40884       -1.60075
H         -0.92152       -1.33231        2.49705
C         -1.87596       -3.85379        2.82891
C          4.63763        0.81103        0.14920
C          4.01405       -0.44341       -0.07073
C          2.63738       -0.51924        0.05221
C          1.89805        0.56626        0.44226
C          2.50588        1.75404        0.75436
C          3.88120        1.89681        0.66129
O          6.00626        0.99265       -0.18374
C          4.79152       -1.70113       -0.48830
H          2.11730       -1.43191       -0.17915
H          1.88452        2.57759        1.06196
C          4.52485        3.22809        1.07959
C          0.53896       -3.45763       -2.97436
C         -0.56553       -5.47049       -2.04029
C         -1.95671       -3.63392       -3.07016
C         -1.09823       -3.30674        4.04746
C         -3.36929       -3.55152        3.02627
C         -1.64285       -5.37517        2.79409
C         -3.50652       -4.93710       -0.18890
H          0.70084       -4.04418       -3.87833
H          0.44547       -2.41731       -3.28192
H          1.42755       -3.55200       -2.35114
H         -0.41333       -5.96437       -2.99966
H          0.28776       -5.69820       -1.40224
H         -1.44948       -5.90706       -1.58245
H         -2.86675       -3.97792       -2.58425
H         -2.05153       -2.55976       -3.22833
H         -1.89290       -4.11453       -4.04597
H         -1.33604       -2.26197        4.24214
H         -1.34985       -3.86480        4.94906
H         -0.02317       -3.39116        3.89067
H         -3.53903       -2.47768        3.09966
H         -3.96078       -3.92420        2.19346
H         -3.74375       -4.01434        3.93896
H         -1.92707       -5.83709        3.73925
H         -2.22709       -5.84814        2.00867
H         -0.59252       -5.59824        2.60962
H         -4.11694       -5.41777        0.57547
H         -3.77532       -3.88224       -0.25904
H         -3.70637       -5.42659       -1.14189
C          6.22086        1.42418       -1.52181
C          4.09536       -2.97411        0.04608
C          4.84134       -1.77626       -2.02203
C          6.21744       -1.69499        0.09158
C          4.56153        4.17676       -0.12804
C          3.70753        3.89643        2.20863
C          5.94755        3.01026        1.62635
H          4.70762       -3.85638       -0.13919
H          3.92833       -2.90217        1.12046
H          3.13562       -3.14505       -0.43878
H          5.37404       -2.66737       -2.35296
H          3.83477       -1.80951       -2.43848
H          5.34322       -0.90810       -2.44272
H          6.18984       -1.59773        1.17636
H          6.74402       -2.61708       -0.15327
H          6.80312       -0.86815       -0.30186
H          3.55568        4.35827       -0.50601
H          4.99931        5.13718        0.14283
H          5.14911        3.75722       -0.94107
H          3.55361        3.20516        3.03686
H          4.22740        4.77239        2.59603
H          2.73338        4.23297        1.85720
H          5.93595        2.30346        2.45536
H          6.37759        3.94560        1.98371
H          6.61087        2.61533        0.86094
H          6.76362        2.36931       -1.51848
H          6.82327        0.68739       -2.05281
H          5.26777        1.55318       -2.03644
