105
-153.06286919
Cl         0.10586        2.68364        2.80054
Pd        -0.22070        1.71624        0.79149
P         -0.72950        0.52492       -1.18615
N          0.38482       -0.76977       -1.61640
C          0.46988       -2.16029       -1.43710
C         -0.02133       -2.85126       -0.29614
C          0.34216       -4.20025       -0.09439
C          0.04486       -4.86603        1.22818
C          1.04681       -5.97998        1.56020
C          1.09082       -6.99569        0.41416
C          1.50407       -6.32774       -0.91043
C          1.07708       -4.88514       -1.06601
C          1.49552       -4.20332       -2.20167
C          1.22351       -2.87083       -2.37009
H          1.59945       -2.34572       -3.23131
H          2.07608       -4.73005       -2.94025
H          2.59537       -6.36998       -1.01187
H          1.76386       -7.82928        0.65899
H          2.04337       -5.54194        1.69738
H          0.03257       -4.11242        2.02536
C         -0.70543       -2.11718        0.79697
C          0.07572       -1.24116        1.59125
C         -0.51160       -0.61981        2.69186
C         -1.83021       -0.84056        2.99381
C         -2.61358       -1.69348        2.22351
C         -4.04986       -1.90839        2.61892
C         -4.59663       -3.25397        2.12316
C         -4.36148       -3.39338        0.61662
C         -2.86716       -3.28566        0.25870
C         -2.05595       -2.34030        1.11770
H         -2.41969       -4.28167        0.31158
H         -4.91901       -2.60494        0.09995
H         -5.66259       -3.36257        2.36896
H         -4.65267       -1.08823        2.21119
H         -2.27625       -0.34146        3.83721
H          0.07926        0.05891        3.28059
N          1.39047       -0.96746        1.20838
P          1.87273        0.71802        1.07952
C          2.69571        0.99929       -0.48619
C          2.35917        2.10439       -1.23173
C          2.84196        2.23486       -2.52008
C          3.66257        1.26012       -3.06938
C          4.00115        0.15797       -2.29630
C          3.52402        0.03087       -1.00408
H          3.76386       -0.83828       -0.41191
H          4.62951       -0.60813       -2.71777
C          4.12697        1.37106       -4.47966
H          2.55947        3.08458       -3.11795
H          1.69603        2.84847       -0.81947
C          2.81845        1.29877        2.47755
C          2.96198        0.47320        3.56597
C          3.66773        0.91241        4.67192
C          4.23537        2.17983        4.68760
C          4.06954        3.00087        3.57956
C          3.36378        2.55971        2.47451
H          3.22724        3.19532        1.61385
H          4.49138        3.99133        3.58992
C          4.96815        2.66722        5.88882
H          3.77757        0.27387        5.53170
H          2.51993       -0.51017        3.54208
H          1.65540       -1.37005        0.31643
H          1.23489       -0.28319       -1.87801
C         -0.57269        1.71126       -2.53010
C         -0.90022        3.03825       -2.38932
C         -0.72858        3.91053       -3.44645
C         -0.22641        3.45996       -4.65963
C          0.07542        2.11220       -4.79572
C         -0.09650        1.24343       -3.73281
H          0.14932        0.19860       -3.83376
H          0.45115        1.74804       -5.73662
C         -0.05334        4.39380       -5.80635
H         -0.98520        4.95021       -3.33531
H         -1.29651        3.38637       -1.45174
C         -2.40331       -0.09920       -1.30536
C         -2.65336       -1.00220       -2.31189
C         -3.94590       -1.44141       -2.54124
C         -4.99624       -0.97729       -1.76136
C         -4.72557       -0.05742       -0.75707
C         -3.43472        0.38320       -0.53588
H         -3.23437        1.13948        0.20272
H         -5.53579        0.32571       -0.16053
C         -6.39072       -1.42857       -2.02488
H         -4.14591       -2.14500       -3.33112
H         -1.83354       -1.35338       -2.91898
Cl        -2.06391        2.96655        0.49825
H          1.11256       -6.89961       -1.76119
H          0.80018       -6.46652        2.51449
H          0.09737       -7.44793        0.30041
H         -0.96270       -5.29274        1.20396
H         -4.78380       -4.33715        0.24405
H         -2.74993       -2.98575       -0.78862
H         -4.14376       -1.83247        3.70971
H         -4.08507       -4.07035        2.64845
H          5.09988        0.89599       -4.61281
H          3.42070        0.88954       -5.15752
H          4.22358        2.41492       -4.78146
H          5.44892        1.84338        6.41817
H          5.74525        3.38150        5.61321
H          4.28712        3.16167        6.58279
H         -0.93782        4.39122       -6.44479
H          0.11012        5.41581       -5.46158
H          0.80465        4.10999       -6.41755
H         -7.00971       -1.34274       -1.13065
H         -6.85000       -0.82710       -2.81044
H         -6.41223       -2.47182       -2.34333
