75
-122.81256537
P          1.82409       -0.62191        0.08125
C          3.13444       -1.33999       -0.92521
C          4.42303       -1.32276       -0.44138
C          5.44428       -1.89201       -1.18041
C          5.16530       -2.48469       -2.39562
C          3.86862       -2.51613       -2.86854
C          2.84991       -1.94690       -2.12684
H          1.83330       -1.97199       -2.48432
H          3.64947       -2.98235       -3.81506
H          5.96000       -2.92708       -2.97391
H          6.45451       -1.87555       -0.80568
H          4.62236       -0.87934        0.52168
C          1.78178       -1.57580        1.61008
C          1.43071       -0.97869        2.79897
C          1.49022       -1.69704        3.97836
C          1.89516       -3.01672        3.95883
C          2.23707       -3.61773        2.76371
C          2.18246       -2.89262        1.58696
H          2.46332       -3.34490        0.64925
H          2.55013       -4.64869        2.74703
H          1.93735       -3.58039        4.87648
H          1.21190       -1.22950        4.90847
H          1.09263        0.04353        2.79581
C          2.18159        1.09927        0.48582
C          3.35045        1.74771        0.16233
C          3.51424        3.09529        0.45030
C          2.46190        3.78477        1.05131
C          1.27973        3.15218        1.36551
C          1.13248        1.78563        1.07969
O         -0.06889        1.10943        1.34650
C         -1.24978        1.80180        1.03301
C         -1.40428        3.16238        1.34253
C         -2.58254        3.80071        1.02311
C         -3.61645        3.13065        0.36987
C         -3.44155        1.79241        0.04538
C         -2.27493        1.14225        0.37225
P         -1.91672       -0.53572       -0.15841
C         -1.61531       -1.61039        1.24856
C         -1.88552       -1.17638        2.52608
C         -1.76725       -2.05366        3.58827
C         -1.38444       -3.36082        3.36066
C         -1.11544       -3.79156        2.07651
C         -1.23544       -2.91225        1.01526
H         -1.05054       -3.23785        0.00343
H         -0.81367       -4.81079        1.89993
H         -1.28822       -4.04463        4.18812
H         -1.97258       -1.71651        4.59090
H         -2.19137       -0.15509        2.68515
C         -3.36448       -1.21887       -0.99565
C         -3.54874       -1.10736       -2.35393
C         -4.67284       -1.64604       -2.94941
C         -5.61729       -2.29102       -2.17669
C         -5.43905       -2.39415       -0.81172
C         -4.30991       -1.85487       -0.22196
H         -4.15889       -1.92959        0.84326
H         -6.17676       -2.89426       -0.20597
H         -6.49606       -2.71071       -2.63858
H         -4.81443       -1.55594       -4.01394
H         -2.82308       -0.57539       -2.94290
Pd         0.05532       -0.03877       -1.40059
Cl        -1.41924        1.01310       -2.74579
Cl         1.72102        0.88265       -2.62084
H         -4.21333        1.26189       -0.48509
C         -4.88700        3.82883        0.03792
H         -5.30238        3.46023       -0.90095
H         -4.73049        4.90297       -0.06888
H         -5.63071        3.67248        0.82029
H         -2.69733        4.84048        1.27385
S         -0.06649        4.02452        2.12394
H          2.56593        4.83381        1.26544
C          4.76644        3.80083        0.06880
H          4.13306        1.21399       -0.34625
H          4.93610        4.67354        0.70066
H          5.63219        3.14495        0.16940
H          4.71829        4.13862       -0.96714
