45
-71.81610403
C          0.39062        0.49304        2.53158
P          0.96677        0.58504        0.80283
P         -1.60482        0.38912       -1.02270
C         -2.39398        0.17455       -2.65269
Cl         1.54235       -2.56045        0.42093
H         -0.69062        0.59068        2.56539
H         -1.66563        0.34359       -3.44063
Cl        -1.06078       -2.67598       -1.63612
C          0.33460        2.06314       -0.01624
C         -0.77271        1.97982       -0.83255
C         -1.26592        3.11122       -1.44925
C         -0.63639        4.32836       -1.25591
C          0.47723        4.41027       -0.44233
C          0.96357        3.27488        0.18162
H         -2.14279        3.03817       -2.07180
H         -1.01776        5.21330       -1.73827
H          0.96679        5.35828       -0.29142
H          1.83059        3.32312        0.82092
Pd         0.02935       -1.13617       -0.41877
H         -3.21345        0.87831       -2.76699
H          0.83551        1.29481        3.11396
H         -2.78236       -0.83590       -2.74268
C         -4.42983       -0.33656        2.46029
C         -4.09422       -1.37509        1.61360
C         -3.24474       -1.14452        0.54731
C         -2.74533        0.11915        0.33289
C         -3.06751        1.15552        1.17831
C         -3.91645        0.92804        2.24636
H         -5.09066       -0.51444        3.29293
H         -4.48631       -2.36381        1.78638
H         -2.93987       -1.94609       -0.10680
H         -2.65108        2.13419        1.00225
H         -4.17461        1.73616        2.91087
C          5.47715        0.26573        0.29962
C          4.90340       -0.07709        1.50804
C          3.53403        0.02450        1.67572
C          2.75003        0.47100        0.63643
C          3.31644        0.80726       -0.57232
C          4.68596        0.70732       -0.74228
H          6.54380        0.18444        0.16817
H          5.52040       -0.42852        2.31867
H          3.07450       -0.25198        2.61066
H          2.68343        1.14466       -1.37820
H          5.13241        0.97055       -1.68707
H          0.66909       -0.46233        2.96706
