72
-98.09654529
Fe        -0.02717        2.79420       -0.04916
P          1.80159       -0.10779        0.02953
P         -1.92427       -0.05022       -0.02004
C          1.40730        1.56980        0.65885
C          0.46259        1.88130        1.71605
C          0.44057        3.32310        1.89003
C          1.40270        3.90482        0.97256
C          2.00026        2.82110        0.21174
C         -1.43483        1.57817       -0.69989
C         -2.02663        2.86436       -0.36513
C         -1.37834        3.88222       -1.17511
C         -0.38868        3.22052       -2.00767
C         -0.45072        1.79182       -1.74829
C          3.09481       -0.79562        1.16678
C          4.34288       -0.01817        0.71927
C          2.92329        0.07141       -1.44462
C          4.31659        0.29634       -0.80691
C         -3.39854       -0.60243       -1.00203
C         -4.53909        0.14556       -0.29284
C         -2.79249        0.13202        1.61557
C         -4.28621        0.27748        1.23409
H         -0.12205        1.15640        2.28071
H         -0.16657        3.87054        2.61459
H          1.63882        4.96661        0.87443
H          2.76679        2.92490       -0.55871
H         -2.82680        3.02677        0.36036
H          0.14768        1.01825       -2.23200
Cl         1.44347       -3.11212        0.31736
Cl        -1.67719       -3.04924       -0.51871
Pd        -0.08738       -1.51189       -0.09523
H          3.21448       -1.85914        0.93235
C          2.72409       -0.61718        2.63256
H          2.59095        0.95603       -2.00095
C          2.90309       -1.15698       -2.35390
H          5.25801       -0.56572        0.99275
H          4.38454        0.92083        1.29024
H          4.66211        1.32450       -0.99022
H          5.04669       -0.34243       -1.32335
H         -1.59686        4.95225       -1.16045
H          0.25577        3.70708       -2.74371
H          2.57643        0.45165        2.83494
H          3.77465       -1.11742       -3.02236
H         -3.50278       -1.68303       -0.85345
C         -3.29669       -0.27900       -2.48859
H         -2.41377        1.04808        2.08381
C         -2.55148       -1.07503        2.52520
H         -5.50367       -0.34622       -0.49351
H         -4.62489        1.14647       -0.74012
H         -4.68777        1.23022        1.60986
H         -4.85885       -0.49880        1.76003
H         -4.27047       -0.46495       -2.96261
H         -2.70295       -1.98853        1.93453
C          3.75996       -1.19674        3.58370
H          3.90463       -2.26366        3.40375
H          4.73046       -0.71398        3.45640
H          3.46878       -1.07599        4.62962
C          1.64052       -1.29598       -3.18621
H          1.46934       -0.41001       -3.80052
H          1.68515       -2.15724       -3.85678
H          0.76581       -1.42945       -2.55374
C         -2.21344       -1.06807       -3.20066
H         -1.23608       -0.85260       -2.77232
H         -2.37710       -2.14283       -3.10297
H         -2.16413       -0.83447       -4.26660
C         -1.18730       -1.09701        3.19356
H         -0.38619       -1.08196        2.45717
H         -1.04975       -0.23140        3.84424
H         -1.04637       -1.99047        3.80614
H          1.74799       -1.08444        2.81376
H          3.05417       -2.05202       -1.73612
H         -3.12069        0.79835       -2.60521
H         -3.33178       -1.10008        3.29892
