171
-217.84797850
P         -1.61854        0.47271       -0.25670
P          1.56160       -0.36000       -0.32758
C         -0.89170        1.46537       -1.56942
C          0.81563       -1.25774       -1.68978
C         -0.11319        0.88999       -2.56852
C          0.52442        1.73348       -3.49894
C          0.33262        3.10256       -3.41619
C         -0.46144        3.65157       -2.43218
C         -1.06473        2.82675       -1.50364
C          0.99341       -2.61772       -1.75127
C          0.41053       -3.34664       -2.76955
C         -0.35842       -2.70317       -3.71644
C         -0.55214       -1.33226       -3.66935
C          0.05666       -0.58693       -2.64132
Cl         1.64405        0.52033        2.86256
Cl        -1.50445       -0.25177        2.97263
C         -1.37595       -0.66891       -4.71712
C          1.41070        1.18930       -4.56436
H         -0.60423        4.71859       -2.38106
H         -1.67223        3.24851       -0.71937
H          1.59235       -3.10921       -1.00125
H          0.55784       -4.41274       -2.82506
H          0.82119        3.74157       -4.13243
H         -0.81916       -3.26851       -4.50889
C         -3.66398       -3.36957       -1.48826
C         -2.72981       -3.40260       -0.46017
C         -2.09728       -2.21394       -0.12294
C         -2.38795       -1.05274       -0.79475
C         -3.31643       -1.03446       -1.80649
C         -3.98052       -2.20056       -2.17002
H         -4.17720       -4.27277       -1.75955
H         -1.38789       -2.18717        0.68627
H         -3.52631       -0.09932       -2.29713
C         -4.59569        2.85981        2.19356
C         -5.06540        1.86165        1.34957
C         -4.13255        1.15329        0.60359
C         -2.79425        1.44424        0.69843
C         -2.34816        2.43761        1.53498
C         -3.24515        3.16500        2.30679
H         -5.30181        3.40690        2.79083
H         -4.44254        0.35652       -0.04841
H         -1.29022        2.62569        1.59768
C          4.25817       -3.09461        2.09733
C          2.88238       -3.19468        2.26690
C          2.07070       -2.37272        1.49510
C          2.62144       -1.45897        0.63045
C          3.98366       -1.35420        0.50082
C          4.83313       -2.17702        1.22628
H          4.89349       -3.75008        2.66200
H          0.99977       -2.42472        1.58045
H          4.39274       -0.61590       -0.16560
C          3.99470        3.20555       -1.66713
C          3.00737        3.39152       -0.70756
C          2.27105        2.28256       -0.31181
C          2.50045        1.05739       -0.88541
C          3.45974        0.89496       -1.85454
C          4.23773        1.97282       -2.26065
H          4.60705        4.04336       -1.94471
H          1.51832        2.36241        0.45291
H          3.59944       -0.08289       -2.28337
Pd         0.02198        0.14085        1.36077
C         -0.91750       -5.03155        0.12160
C         -2.40110       -4.67854        0.32715
C         -3.25491       -5.87416       -0.13654
C         -2.67940       -4.43411        1.82276
H         -0.27088       -4.20699        0.41616
H         -0.63803       -5.90671        0.70781
H         -0.71821       -5.25114       -0.92649
H         -3.01364       -6.76721        0.43990
H         -4.31759       -5.67212       -0.00348
H         -3.07426       -6.10176       -1.18694
H         -2.44892       -5.32057        2.41334
H         -2.08249       -3.61007        2.21049
H         -3.72832       -4.18521        1.98202
C         -5.26312       -0.83764       -3.89691
C         -5.07814       -2.22118       -3.24355
C         -6.41190       -2.62920       -2.59029
C         -4.70823       -3.23800       -4.33954
H         -4.34428       -0.50049       -4.37442
H         -6.03872       -0.87207       -4.66188
H         -5.56168       -0.09244       -3.15991
H         -7.21869       -2.63852       -3.32296
H         -6.34916       -3.62379       -2.15025
H         -6.68261       -1.93055       -1.79907
H         -4.63866       -4.24782       -3.93717
H         -5.45736       -3.24731       -5.13108
H         -3.74696       -2.99222       -4.78842
C         -7.05627        1.10613        2.67037
C         -6.56795        1.55459        1.28097
C         -6.87220        0.43093        0.26983
C         -7.32799        2.82063        0.84489
H         -8.11795        0.86067        2.65075
H         -6.51090        0.22284        3.00228
H         -6.90828        1.88885        3.41345
H         -7.94238        0.22938        0.22519
H         -6.54653        0.70745       -0.73277
H         -6.37428       -0.49662        0.55200
H         -8.39762        2.62623        0.76769
H         -7.18801        3.63261        1.55747
H         -6.97621        3.16435       -0.12770
C         -3.45925        5.58285        2.94576
C         -2.78241        4.24473        3.29467
C         -1.25511        4.44369        3.24304
C         -3.16975        3.81864        4.72234
H         -3.13003        6.37353        3.61977
H         -3.21379        5.88351        1.92730
H         -4.54353        5.51137        3.02172
H         -0.72952        3.52678        3.50946
H         -0.93736        4.74962        2.24705
H         -0.94085        5.21824        3.94238
H         -2.83562        4.55405        5.45393
H         -4.24909        3.71203        4.82417
H         -2.71418        2.86068        4.97271
C          2.41538       -5.61618        2.68235
C          2.29455       -4.19979        3.26833
C          0.81031       -3.90012        3.55954
C          3.06007       -4.12109        4.60425
H          1.99948       -6.35836        3.36350
H          1.88088       -5.68832        1.73533
H          3.45790       -5.87401        2.49745
H          0.42302       -4.56649        4.33004
H          0.67978       -2.87528        3.90708
H          0.19858       -4.04273        2.67137
H          3.04376       -3.10423        4.99604
H          2.60924       -4.77627        5.34946
H          4.10015       -4.42302        4.49104
C          7.12948       -3.02364        1.92882
C          6.35084       -2.02361        1.05312
C          6.76202       -0.59492        1.45636
C          6.72190       -2.27122       -0.42099
H          6.87768       -4.05161        1.66868
H          8.20398       -2.90238        1.79182
H          6.91309       -2.87064        2.98594
H          7.83873       -0.45639        1.36035
H          6.27303        0.15005        0.82963
H          6.48550       -0.39311        2.49097
H          7.79770       -2.18487       -0.57263
H          6.41535       -3.26946       -0.73281
H          6.23493       -1.55172       -1.07786
C          2.56914        5.81407       -1.20798
C          2.78459        4.77777       -0.08874
C          4.02020        5.16039        0.74428
C          1.54558        4.79326        0.82787
H          2.36519        6.80040       -0.79164
H          3.44686        5.89985       -1.84708
H          1.72466        5.53198       -1.83570
H          4.19170        4.42991        1.53474
H          4.91561        5.19875        0.12468
H          3.89096        6.13778        1.20879
H          1.37189        5.79224        1.22753
H          0.65253        4.49460        0.27944
H          1.67360        4.11925        1.67460
C          6.72393        1.93075       -2.49574
C          5.39298        1.81293       -3.25956
C          5.31734        2.91191       -4.33751
C          5.34831        0.44238       -3.96411
H          6.80936        2.90015       -2.00553
H          6.79677        1.16106       -1.72756
H          7.57317        1.81777       -3.16939
H          4.36047        2.88195       -4.85703
H          5.43375        3.90509       -3.90627
H          6.10544        2.78244       -5.07915
H          5.48039       -0.37223       -3.25280
H          4.40047        0.29772       -4.48150
H          6.14545        0.36149       -4.70300
H         -0.77596       -0.44423       -5.59976
H          1.66365        0.14421       -4.38145
H         -1.80461        0.26552       -4.35214
H         -2.19911       -1.31005       -5.03235
H          2.34462        1.74975       -4.61022
H          0.93268        1.25718       -5.54255
