72
-98.09282561
Fe         0.02328        2.78476       -0.11452
P          1.83621       -0.05576        0.16816
P         -1.89413       -0.04229        0.06709
C          1.41864        1.63126        0.75481
C          0.37112        1.95153        1.70681
C          0.29256        3.39663        1.82601
C          1.31380        3.97380        0.97144
C          2.01448        2.88362        0.31438
C         -1.35858        1.50390       -0.77405
C         -1.94931        2.82405       -0.61288
C         -1.21332        3.75350       -1.45303
C         -0.18541        3.00750       -2.15494
C         -0.28322        1.61849       -1.74519
C          2.95254        0.08362       -1.31232
C          4.36619       -0.18360       -0.74655
C          3.03884       -0.83142        1.33597
C          4.37820       -0.29579        0.80345
C         -3.23975       -0.79787       -0.95829
C         -4.49778       -0.12207       -0.39074
C         -2.91510        0.42741        1.56197
C         -4.36669        0.12454        1.13450
H         -0.26001        1.22697        2.21666
H         -0.39844        3.95017        2.46609
H          1.52654        5.03864        0.85276
H          2.84655        2.98583       -0.38524
H         -2.80756        3.07002        0.01580
H          0.33869        0.80116       -2.10656
Cl         1.53287       -3.04212       -0.41461
Cl        -1.59244       -3.06667        0.18681
Pd        -0.01724       -1.45680        0.00517
H          2.85769        1.11794       -1.66256
C          2.56504       -0.87858       -2.43177
H          2.97659       -1.91598        1.18775
C          2.74775       -0.48304        2.79072
H          5.06933        0.59115       -1.08620
H          4.74299       -1.12256       -1.17405
H          5.20983       -0.92941        1.14918
H          4.55831        0.69503        1.24473
H         -1.41719        4.82132       -1.55981
H          0.52465        3.41439       -2.87851
H          2.74917       -1.90573       -2.09237
H          3.60484       -0.78121        3.41054
H         -3.25939       -1.86995       -0.73372
C         -3.04572       -0.58332       -2.45607
H         -2.77899        1.51366        1.64106
C         -2.53280       -0.22592        2.89615
H         -5.39201       -0.72257       -0.61937
H         -4.64554        0.83615       -0.90882
H         -5.03470        0.93875        1.45319
H         -4.72377       -0.76109        1.67481
H         -3.97601       -0.84986       -2.97684
H         -3.26263        0.09206        3.65361
C          3.31262       -0.61079       -3.72904
H          3.02856       -1.31137       -4.51759
H          3.11207        0.39717       -4.09732
H          4.39204       -0.69318       -3.59042
C          1.47639       -1.13511        3.31164
H          1.27112       -0.86648        4.35028
H          0.61036       -0.83951        2.71950
H          1.54052       -2.22356        3.25848
C         -1.88553       -1.37828       -3.03371
H         -1.78186       -1.23065       -4.11101
H         -0.94020       -1.09096       -2.57455
H         -2.01355       -2.44791       -2.85754
C         -2.45965       -1.74277        2.87250
H         -1.65632       -2.08722        2.22299
H         -2.26675       -2.15835        3.86440
H         -3.38318       -2.19218        2.50606
H          1.48332       -0.83222       -2.60589
H          2.68612        0.60881        2.88787
H         -2.90699        0.48891       -2.64603
H         -1.57627        0.17484        3.25095
