45
-71.81482714
C          0.35040        0.42875        2.52922
P          0.95941        0.54180        0.81247
P         -1.61906        0.38381       -1.00482
C         -2.41369        0.18082       -2.63354
Cl         1.77355       -2.43223        0.11018
H          0.76851        1.23508        3.12500
H         -2.81522       -0.82451       -2.72340
Cl        -1.17414       -2.71400       -1.54576
C          0.34025        2.03094        0.00182
C         -0.76856        1.96382       -0.81360
C         -1.24933        3.10297       -1.42583
C         -0.60540        4.31198       -1.22903
C          0.50993        4.37794       -0.41636
C          0.98356        3.23470        0.20299
H         -2.12775        3.04231       -2.04750
H         -0.97681        5.20297       -1.70801
H          1.01100        5.31952       -0.26297
H          1.85231        3.27048        0.84071
Pd         0.00897       -1.16266       -0.43922
H         -1.68480        0.34124       -3.42279
H          0.63809       -0.52396        2.96458
H         -3.22427        0.89515       -2.74558
C         -4.46394       -0.28453        2.47489
C         -4.12003       -1.33817        1.65064
C         -3.26322       -1.12595        0.58659
C         -2.76413        0.13399        0.35127
C         -3.09549        1.18556        1.17407
C         -3.95165        0.97680        2.24023
H         -5.13075       -0.44781        3.30574
H         -4.51196       -2.32417        1.83880
H         -2.95397       -1.93895       -0.05082
H         -2.68059        2.16185        0.98191
H         -4.21666        1.79708        2.88689
C          5.48463        0.30709        0.40322
C          4.70148        0.67621       -0.67238
C          3.32716        0.75013       -0.53004
C          2.74789        0.45999        0.68433
C          3.52396        0.08620        1.75770
C          4.89812        0.01087        1.61781
H          6.55508        0.24599        0.29346
H          5.15790        0.90279       -1.62189
H          2.70032        1.03095       -1.36210
H          3.05510       -0.15305        2.69821
H          5.50918       -0.28368        2.45518
H         -0.73291        0.50645        2.54214
