59
-75.80302673
Cl         1.59421        0.44459        2.32970
P          1.58999       -0.14123       -0.86048
P         -1.60417       -0.05461       -0.87090
C          0.60919        0.18719       -2.38831
H          0.35441        1.24990       -2.42646
H          1.22513       -0.04004       -3.26462
C         -0.62960       -0.65785       -2.31482
H         -0.37697       -1.71103       -2.16437
H         -1.24450       -0.58698       -3.21784
C          2.64684       -1.63225       -1.22810
H          2.41530       -1.87051       -2.27507
C          2.94209        1.09903       -0.59079
H          3.09983        1.13879        0.49402
C         -2.96141       -1.20245       -0.33395
H         -3.01034       -1.11819        0.75871
C         -2.64922        1.36179       -1.48074
H         -2.55244        1.30740       -2.57374
C          4.09219       -1.10605       -1.13755
H          4.52936       -1.40383       -0.17697
H          4.72202       -1.58709       -1.90088
C          4.15281        0.43854       -1.26903
H          4.16028        0.72019       -2.33122
H          5.09064        0.83510       -0.85053
C         -4.21972       -0.58138       -0.96192
H         -4.37316       -1.02131       -1.95696
H         -5.11302       -0.85086       -0.37799
C         -4.08122        0.95855       -1.08874
H         -4.34300        1.42468       -0.13107
H         -4.80432        1.35933       -1.81514
C          2.35371       -2.84964       -0.35202
H          3.00110       -3.67797       -0.67179
H          1.33236       -3.19443       -0.55651
C          2.60719        2.49107       -1.11119
H          3.51848        3.10518       -1.10950
H          2.31346        2.41722       -2.16595
C         -2.71239       -2.65369       -0.72573
H         -3.64007       -3.22774       -0.59328
H         -2.49670       -2.70001       -1.80091
C         -2.21158        2.74715       -1.00551
H         -1.21430        2.96027       -1.41168
H         -2.86930        3.49946       -1.46253
C          2.52629       -2.62007        1.14178
H          3.55543       -2.36950        1.40139
H          2.25536       -3.50426        1.72353
H          1.90168       -1.80049        1.49363
C          1.52101        3.17314       -0.29590
H          1.25315        4.15208       -0.69972
H          1.83616        3.31752        0.73930
H          0.61625        2.56673       -0.26680
C         -1.59001       -3.29054        0.07750
H         -1.37561       -4.31097       -0.24797
H         -1.83692       -3.32788        1.14032
H         -0.67033       -2.71306       -0.01093
C         -2.20200        2.93608        0.50336
H         -3.19687        2.82360        0.93566
H         -1.55818        2.20663        0.99229
H         -1.83949        3.92681        0.78750
Cl        -1.62890        0.23154        2.36746
Pd        -0.01253       -0.01367        0.82894
