171
-217.83752810
P         -1.65078        0.73935        0.29105
P          1.47716       -0.25525       -0.34717
C         -0.92046        1.81330       -0.96318
C          0.52055       -0.94222       -1.70633
C         -0.32123        1.35882       -2.13229
C          0.30497        2.29640       -2.97515
C          0.28156        3.63918       -2.63749
C         -0.32477        4.07117       -1.47818
C         -0.91452        3.14913       -0.63606
C          0.61598       -2.27715       -2.01178
C         -0.10613       -2.80075       -3.06562
C         -0.92680       -1.97668       -3.80754
C         -1.04574       -0.62832       -3.51034
C         -0.28706       -0.09253       -2.45159
Cl         2.24066        1.25633        2.51412
Cl        -0.76812        0.58411        3.49370
C         -1.95192        0.23302       -4.31868
C          1.00940        1.88308       -4.21836
H         -0.33005        5.11844       -1.22372
H         -1.36879        3.46821        0.29057
H          1.26290       -2.91015       -1.42938
H         -0.03032       -3.84891       -3.30477
H          0.75803        4.34943       -3.29221
H         -1.48111       -2.37953       -4.63789
C         -3.04597       -3.43477       -0.78224
C         -3.66398       -2.33840       -1.36950
C         -3.18471       -1.07477       -1.04682
C         -2.14179       -0.92751       -0.16556
C         -1.55992       -2.02303        0.42816
C         -2.00100       -3.30540        0.12534
H         -3.40922       -4.41447       -1.02892
H         -3.63267       -0.19160       -1.46771
H         -0.77176       -1.87782        1.14596
C         -5.41649        2.83015        1.71026
C         -4.59274        2.24315        2.66299
C         -3.43651        1.61428        2.22205
C         -3.12621        1.57559        0.88710
C         -3.95316        2.15875       -0.04146
C         -5.11798        2.80392        0.35290
H         -6.31039        3.32332        2.04291
H         -2.75245        1.16440        2.91711
H         -3.67906        2.12206       -1.08297
C          3.79461       -3.62093        1.69282
C          3.99526       -3.35681        0.34400
C          3.28543       -2.30777       -0.22631
C          2.37155       -1.58664        0.50350
C          2.18275       -1.87738        1.83463
C          2.89972       -2.88656        2.45975
H          4.35531       -4.40819        2.15833
H          3.45286       -2.04843       -1.25660
H          1.48488       -1.30546        2.41692
C          4.55283        2.54757       -2.14985
C          4.32059        1.31814       -2.75694
C          3.36370        0.48628       -2.18821
C          2.69812        0.85913       -1.04534
C          2.95101        2.07042       -0.45514
C          3.87741        2.94665       -1.00202
H          5.28445        3.20667       -2.57553
H          3.12897       -0.45859       -2.64814
H          2.43623        2.32640        0.45357
Pd         0.32433        0.62990        1.52946
C         -5.47496       -1.20311       -2.75051
C         -4.86903       -2.54603       -2.29881
C         -5.95941       -3.33523       -1.54901
C         -4.42675       -3.33201       -3.54491
H         -4.75061       -0.60998       -3.30702
H         -6.33568       -1.36469       -3.39931
H         -5.81189       -0.62166       -1.89277
H         -5.60786       -4.32499       -1.26060
H         -6.26002       -2.80907       -0.64312
H         -6.84388       -3.46619       -2.17224
H         -3.67280       -2.77745       -4.10089
H         -4.00104       -4.29738       -3.27341
H         -5.26969       -3.51269       -4.21172
C         -1.98850       -5.84488        0.35181
C         -1.40260       -4.51381        0.86161
C         -1.72339       -4.38123        2.36110
C          0.12145       -4.55384        0.65468
H         -1.53525       -6.68953        0.87066
H         -3.06361       -5.89376        0.52320
H         -1.80047       -5.97221       -0.71422
H         -2.80095       -4.36250        2.52298
H         -1.31183       -5.21742        2.92587
H         -1.31207       -3.45979        2.77049
H          0.57055       -5.37929        1.20662
H          0.36268       -4.68755       -0.39893
H          0.59005       -3.63351        0.99524
C         -6.33561        1.63657        4.36201
C         -4.96865        2.31287        4.15021
C         -5.04402        3.78746        4.58654
C         -3.92833        1.59580        5.03360
H         -6.30490        0.59727        4.03537
H         -6.61939        1.65164        5.41419
H         -7.11951        2.14132        3.79864
H         -5.29013        3.86903        5.64511
H         -4.08879        4.28586        4.42253
H         -5.80453        4.32866        4.02491
H         -4.21000        1.64964        6.08502
H         -3.84687        0.54221        4.76736
H         -2.94456        2.05354        4.93248
C         -6.45880        2.40671       -1.72973
C         -6.00509        3.46760       -0.70978
C         -5.19549        4.56302       -1.42864
C         -7.25769        4.11254       -0.08632
H         -5.60746        1.96338       -2.24482
H         -7.00641        1.60574       -1.23347
H         -7.11174        2.84481       -2.48439
H         -4.32189        4.14581       -1.92849
H         -5.80193        5.06633       -2.18141
H         -4.84711        5.31259       -0.71836
H         -6.98519        4.89041        0.62672
H         -7.87824        4.57343       -0.85478
H         -7.86683        3.36906        0.42749
C          4.33673       -4.56411       -1.83678
C          4.99997       -4.14323       -0.50979
C          5.48249       -5.41831        0.20913
C          6.21510       -3.24532       -0.79799
H          4.05694       -3.70040       -2.43827
H          5.01472       -5.17323       -2.43436
H          3.43609       -5.14829       -1.64829
H          6.03762       -5.17605        1.11493
H          4.64076       -6.05613        0.47877
H          6.14587       -5.99684       -0.43373
H          6.70950       -2.95677        0.12939
H          6.94320       -3.75935       -1.42519
H          5.91244       -2.33287       -1.30925
C          3.12470       -1.83045        4.71804
C          2.71272       -3.11119        3.96754
C          3.57222       -4.28162        4.48168
C          1.23558       -3.42614        4.26261
H          4.16304       -1.57724        4.50564
H          2.50845       -0.98247        4.42108
H          3.02017       -1.95767        5.79523
H          3.30984       -5.21138        3.97708
H          4.63320       -4.08869        4.32421
H          3.42057       -4.43195        5.55051
H          0.58863       -2.60019        3.97013
H          0.91860       -4.31596        3.72005
H          1.08020       -3.60706        5.32596
C          6.13677        1.88631       -4.45149
C          5.11766        0.83184       -3.97860
C          4.16185        0.52397       -5.14567
C          5.88231       -0.44915       -3.59715
H          6.69103        1.52645       -5.31829
H          5.63832        2.81158       -4.74010
H          6.86080        2.11153       -3.66867
H          4.71112        0.13989       -6.00515
H          3.42023       -0.22331       -4.86610
H          3.63621        1.42306       -5.46393
H          5.19508       -1.24957       -3.32612
H          6.49293       -0.80264       -4.42780
H          6.54019       -0.26622       -2.74777
C          2.81774        5.08410       -0.23162
C          4.13494        4.28996       -0.30518
C          5.17392        5.13777       -1.06337
C          4.65987        4.02649        1.11859
H          2.96977        6.04934        0.25087
H          2.42266        5.26464       -1.23089
H          2.06053        4.54413        0.33567
H          4.83943        5.35172       -2.07836
H          5.33498        6.09156       -0.56102
H          6.13524        4.62701       -1.11528
H          5.58048        3.44424        1.08753
H          4.86814        4.96183        1.63755
H          3.93426        3.47081        1.71142
H         -2.81279       -0.33142       -4.67942
H          0.43871        2.16585       -5.10403
H         -1.43282        0.63731       -5.18842
H         -2.32921        1.07034       -3.72937
H          1.17151        0.80512       -4.24826
H          1.98446        2.36787       -4.27993
