64
-97.21530907
Cl        -1.59270       -1.34402       -2.51226
Cl         1.67049       -1.21057       -2.89321
P          1.96539       -0.62284        0.26350
C          2.15989       -2.29997        1.02400
C          3.75465       -0.19863       -0.00395
P         -1.29842       -0.15154        0.41399
C          1.25091        0.59036        1.43149
C         -0.17862        0.82826        1.48489
C         -0.42035        1.92735        2.40727
C          0.86823        2.39406        2.88668
C          1.90154        1.56272        2.29500
H         -1.39637        2.30885        2.71299
H          1.03004        3.20426        3.60128
Pd         0.19824       -0.90537       -1.23945
H          2.97700        1.65132        2.46128
C         -5.06758        2.05483       -0.91680
C         -4.09278        2.73955       -0.21944
C         -2.94713        2.08183        0.18786
C         -2.77242        0.74809       -0.10607
C         -3.74731        0.06404       -0.79613
C         -4.89705        0.71570       -1.20502
H         -5.96145        2.56550       -1.23616
H         -4.22339        3.78504        0.00725
H         -2.18332        2.61078        0.72932
H         -3.60143       -0.98007       -1.02111
H         -5.65567        0.17839       -1.75012
C         -2.58397       -3.97404        2.50321
C         -2.38827       -2.81996        3.23709
C         -2.00549       -1.65371        2.59853
C         -1.81997       -1.65412        1.23542
C         -2.02038       -2.79853        0.49937
C         -2.40263       -3.96556        1.13386
H         -2.88171       -4.88296        3.00017
H         -2.53159       -2.82713        4.30513
H         -1.84221       -0.74446        3.15523
H         -1.88649       -2.76610       -0.56986
H         -2.56000       -4.86427        0.56043
C          4.15312       -0.25050       -1.46249
H          3.90595        0.81140        0.39864
C          4.48451       -1.25201        0.85255
H          4.64733       -0.86217        1.86809
C          3.67353       -2.57269        0.93166
H          5.48708       -1.43574        0.43935
C          1.63316       -2.29634        2.44267
H          1.58978       -3.00299        0.40123
H          3.99319       -3.17352        1.79526
H          3.89079       -3.18748        0.04612
H          0.57716       -2.02224        2.47372
H          1.74129       -3.27584        2.91446
H          2.17681       -1.57122        3.05159
H          3.95984       -1.24187       -1.87534
H          3.59317        0.46816       -2.06262
H          5.21643       -0.03895       -1.59468
Fe         0.78495        2.46989        0.83542
C          1.32021        2.23486       -1.15296
C          2.19972        3.17231       -0.48299
C          1.38011        4.24206        0.06171
C         -0.00520        3.97420       -0.28771
C         -0.03885        2.71930       -1.01827
H          1.62007        1.34660       -1.71151
H          3.28851        3.10531       -0.42700
H          1.74677        5.11824        0.60202
H         -0.86308        4.60944       -0.05477
H         -0.92257        2.25360       -1.45943
