111
-148.55425786
P         -1.72371        2.68956        0.32779
P         -0.49725       -0.22406        0.42200
C         -1.80193        1.72659        1.86400
C         -1.32851        0.43155        1.88368
C         -0.61552        4.15621        0.52583
C          0.63825        4.00052       -0.30864
C         -2.30268        2.29345        3.01844
H         -2.63482        3.31871        3.00652
C         -2.35123        1.55101        4.18565
H         -2.74597        1.99184        5.08647
C         -1.88764        0.24942        4.19948
H         -1.91946       -0.32618        5.10989
C         -1.36407       -0.30855        3.04702
H         -0.96425       -1.31044        3.05002
Pd        -1.19242        1.14577       -1.30439
Cl        -1.77378        2.70613       -2.80781
Cl        -0.58630       -0.43232       -2.78354
C         -1.51399        5.33721        0.10830
C         -3.31450        3.53535       -0.10263
H          0.38613        3.87581       -1.36363
H          1.28736        4.87502       -0.22256
H          1.21346        3.12355       -0.00496
H         -1.30403        5.58371       -0.94157
H         -1.25098        6.23978        0.68042
H         -3.41716        3.43649       -1.19132
C         -3.02522        5.00202        0.26427
C         -4.51194        2.92270        0.59249
H         -0.37338        4.21348        1.59510
H         -3.33684        5.17691        1.30317
H         -3.64299        5.67795       -0.34660
H         -4.42811        3.01319        1.67571
H         -5.44003        3.41599        0.29489
H         -4.60334        1.85950        0.35877
C         -0.92735       -4.72723       -0.12937
C          0.23112       -4.06368       -0.60750
C          0.34642       -2.70248       -0.38131
C         -0.66745       -1.99229        0.20618
C         -1.84001       -2.60854        0.55962
C         -2.01338       -3.97174        0.38142
O         -0.98882       -6.14631       -0.13301
C          1.35436       -4.79052       -1.36392
H          1.23807       -2.17445       -0.66877
H         -2.62234       -2.00430        0.98567
C         -3.35402       -4.61738        0.76545
C          3.76328        1.40063        0.41453
C          2.96524        1.50308        1.58256
C          1.70173        0.93702        1.56590
C          1.20241        0.35339        0.43076
C          1.92745        0.35452       -0.73221
C          3.19863        0.89739       -0.78484
O          5.12976        1.78686        0.44780
C          3.44475        2.22408        2.85222
H          1.07801        0.96203        2.44192
H          1.45780       -0.03580       -1.61765
C          3.93641        0.95280       -2.13177
C          2.02378       -3.83863       -2.38207
C          2.41822       -5.26772       -0.36417
C          0.80242       -5.98411       -2.16437
C         -3.29147       -5.08760        2.22650
C         -4.51178       -3.60351        0.62409
C         -3.68069       -5.80363       -0.16010
C         -0.44765       -6.75359        1.03332
H          1.27792       -3.37500       -3.02729
H          2.58478       -3.04889       -1.88550
H          2.72601       -4.37981       -3.01569
H          3.23274       -5.77983       -0.87582
H          2.83993       -4.42387        0.18147
H          1.99461       -5.95437        0.36489
H          0.38213       -6.74215       -1.50829
H          0.01595       -5.65815       -2.84423
H          1.58695       -6.45710       -2.75449
H         -2.50461       -5.82413        2.36986
H         -3.08662       -4.24959        2.89243
H         -4.23483       -5.53940        2.53212
H         -4.44205       -2.80679        1.36327
H         -4.51402       -3.15368       -0.36843
H         -5.47435       -4.09269        0.77175
H         -2.95139       -6.60284       -0.05260
H         -4.66157       -6.22014        0.06753
H         -3.67937       -5.48802       -1.20286
H          0.39034       -7.39381        0.75849
H         -0.10871       -5.99214        1.73687
H         -1.20827       -7.37394        1.50718
C          6.02073        0.74062        0.81217
C          4.37976        3.39593        2.50205
C          2.24729        2.82191        3.62655
C          4.16772        1.22212        3.76444
C          2.93138        1.01581       -3.30509
C          4.81469        2.21371       -2.22390
C          4.79913       -0.30726       -2.29472
H          4.66768        3.94846        3.39607
H          5.29144        3.04677        2.02365
H          3.88787        4.08793        1.81915
H          1.61180        2.04601        4.05087
H          2.59235        3.44012        4.45497
H          1.63762        3.44703        2.97494
H          4.51382        1.70492        4.67800
H          3.50141        0.40664        4.04482
H          5.03081        0.78717        3.26628
H          3.44831        1.18792       -4.24873
H          2.37635        0.08480       -3.41081
H          2.21743        1.82672       -3.16254
H          5.29043        2.28962       -3.20130
H          4.21577        3.11032       -2.06729
H          5.60233        2.20320       -1.47433
H          5.53970       -0.38343       -1.50249
H          5.32621       -0.29881       -3.24843
H          4.18157       -1.20395       -2.25866
H          6.55226        1.01345        1.72359
H          5.47194       -0.18792        0.97449
H          6.75589        0.59608        0.02065
