111
-148.55431818
P         -2.22077        2.21447        1.01595
P          0.07658        0.08955        0.50560
C         -1.24733        1.59200        2.40855
C         -0.25635        0.66324        2.18084
C         -2.31348        4.06095        1.04355
C         -1.42242        4.66293       -0.02134
C         -1.48955        2.04299        3.68997
H         -2.26541        2.77192        3.85959
C         -0.73621        1.55545        4.74409
H         -0.92433        1.90564        5.74587
C          0.25521        0.62064        4.51373
H          0.84137        0.24089        5.33432
C          0.49618        0.17269        3.22692
H          1.26782       -0.55469        3.02784
Pd        -1.35584        1.25369       -0.89297
Cl        -2.97906        2.34024       -2.00001
Cl        -0.44033        0.23494       -2.66579
C         -3.81709        4.33347        0.85376
C         -4.02113        1.79388        1.12448
H         -1.72130        4.32109       -1.01391
H         -1.47630        5.75414       -0.01767
H         -0.37873        4.37334        0.12416
H         -4.01657        4.47375       -0.21759
H         -4.09891        5.28295        1.33384
H         -4.30133        1.42035        0.13050
C         -4.68385        3.15883        1.39027
C         -4.28947        0.74755        2.18578
H         -1.98944        4.37317        2.04488
H         -4.82960        3.27672        2.47277
H         -5.69347        3.18502        0.95300
H         -4.00202        1.11310        3.17286
H         -5.34871        0.48338        2.22754
H         -3.71909       -0.16478        1.99916
C         -1.19117       -4.26568        0.10840
C         -2.14897       -3.22294        0.02975
C         -1.71068       -1.91851        0.18455
C         -0.37816       -1.63102        0.32707
C          0.56227       -2.62744        0.31023
C          0.19184       -3.95388        0.16025
O         -1.61859       -5.61890        0.16871
C         -3.64464       -3.48321       -0.20882
H         -2.41168       -1.10178        0.19539
H          1.59662       -2.35433        0.42356
C          1.28435       -5.03141        0.07123
C          4.28580        1.21767       -0.82641
C          3.62515        1.97337        0.17552
C          2.36237        1.56833        0.57566
C          1.73478        0.50731       -0.02454
C          2.32228       -0.15245       -1.07187
C          3.58492        0.19793       -1.51954
O          5.65463        1.45920       -1.11957
C          4.25545        3.20889        0.83753
H          1.84549        2.08140        1.36838
H          1.76626       -0.93823       -1.55228
C          4.17870       -0.52236       -2.74048
C         -4.35342       -3.66231        1.14205
C         -4.29263       -2.29197       -0.95238
C         -3.85549       -4.72851       -1.08894
C          2.56901       -4.45299       -0.56403
C          1.61860       -5.53603        1.48289
C          0.83561       -6.20431       -0.81958
C         -1.84845       -6.09635        1.48829
H         -4.23284       -2.77405        1.76158
H         -5.42040       -3.83467        1.00319
H         -3.94553       -4.50677        1.69234
H         -3.73351       -2.04802       -1.85536
H         -5.31518       -2.52844       -1.24542
H         -4.33850       -1.40167       -0.32730
H         -3.32010       -4.62593       -2.03224
H         -3.49411       -5.62805       -0.59685
H         -4.91171       -4.87664       -1.31228
H          3.04451       -3.71922        0.08501
H          3.30010       -5.24055       -0.74536
H          2.34658       -3.97702       -1.51864
H          2.40038       -6.29452        1.45147
H          1.96724       -4.71742        2.11210
H          0.74579       -5.97286        1.96221
H          0.55295       -5.84752       -1.80943
H          1.63519       -6.93521       -0.93767
H         -0.02123       -6.72080       -0.39429
H         -2.88341       -6.42441        1.58325
H         -1.20144       -6.95088        1.68566
H         -1.64693       -5.31102        2.21789
C          6.56158        0.71164       -0.31937
C          3.16245        4.22163        1.25046
C          5.02276        2.77469        2.09546
C          5.19780        3.94200       -0.13445
C          5.04176        0.44023       -3.57628
C          5.02250       -1.71709       -2.27215
C          3.05749       -1.04585       -3.66699
H          2.54244        3.84018        2.06039
H          3.60949        5.15133        1.60173
H          2.51616        4.45946        0.40592
H          5.47890        3.63181        2.59014
H          4.35351        2.29109        2.80674
H          5.81188        2.06736        1.85166
H          6.04516        3.32030       -0.41185
H          4.67018        4.21348       -1.04818
H          5.59142        4.85386        0.31395
H          5.41607       -0.04880       -4.47524
H          4.46080        1.31045       -3.87991
H          5.90115        0.79320       -3.01112
H          4.41899       -2.40900       -1.68619
H          5.43230       -2.26250       -3.12189
H          5.85306       -1.39389       -1.64989
H          2.49721       -1.85602       -3.20275
H          3.47301       -1.43584       -4.59578
H          2.35998       -0.24814       -3.92123
H          6.01882        0.02450        0.33097
H          7.23541        0.14814       -0.96468
H          7.16128        1.38928        0.28774
