111
-148.55493411
P         -1.63825        2.78200       -0.04237
P         -0.48759       -0.10183        0.54616
C         -1.67436        2.12542        1.64909
C         -1.23246        0.84164        1.89101
C         -0.50928        4.23898       -0.17625
C          0.67694        3.91198       -1.05873
C         -2.11742        2.90841        2.69558
H         -2.43047        3.92206        2.50558
C         -2.13705        2.39347        3.98038
H         -2.48623        3.00307        4.79776
C         -1.70478        1.10245        4.21754
H         -1.71532        0.70413        5.21874
C         -1.24163        0.32650        3.16998
H         -0.87103       -0.67210        3.34069
Pd        -1.25110        0.94463       -1.37135
Cl        -1.61978        2.16038       -3.21424
Cl        -0.79049       -0.99872       -2.41305
C         -1.42275        5.34960       -0.73409
C         -3.23269        3.55189       -0.57953
H          0.34525        3.62704       -2.05916
H          1.34736        4.76846       -1.16220
H          1.25421        3.07604       -0.65866
H         -1.25386        5.43168       -1.81655
H         -1.13525        6.32685       -0.31777
H         -3.35759        3.26876       -1.63337
C         -2.92813        5.05687       -0.47186
C         -4.41343        3.07477        0.23904
H         -0.19058        4.47322        0.84789
H         -3.20255        5.40411        0.53377
H         -3.56639        5.62648       -1.16468
H         -4.51773        1.98852        0.18693
H         -4.29684        3.34150        1.28993
H         -5.34675        3.52213       -0.11034
C         -1.02452       -4.61741        0.72218
C          0.24202       -4.05015        1.01504
C          0.37381       -2.67291        0.95275
C         -0.70413       -1.87105        0.68276
C         -1.95152       -2.40691        0.50047
C         -2.15417       -3.77672        0.55105
O         -1.15176       -6.02357        0.56660
C          1.47236       -4.90611        1.35479
H          1.33181       -2.20457        1.09710
H         -2.76758       -1.73479        0.29603
C         -3.57870       -4.32549        0.37472
C          3.79784        1.30634       -0.05876
C          3.26797        0.28274       -0.88570
C          1.96041       -0.11853       -0.67304
C          1.22684        0.38503        0.36751
C          1.76814        1.29833        1.23391
C          3.06534        1.75431        1.07058
O          5.03730        1.91694       -0.38743
C          4.06094       -0.36253       -2.03185
H          1.47342       -0.79974       -1.34924
H          1.15083        1.67312        2.03104
C          3.63966        2.75609        2.08426
C          1.06731       -6.16934        2.13587
C          2.19735       -5.29441        0.05728
C          2.45742       -4.11885        2.24881
C         -3.85440       -4.54401       -1.12089
C         -3.77041       -5.64145        1.15035
C         -4.62030       -3.32535        0.92633
C         -0.95981       -6.47962       -0.76681
H          0.43213       -6.81857        1.53832
H          1.94381       -6.74604        2.43019
H          0.51777       -5.90283        3.03806
H          1.55598       -5.88389       -0.59277
H          2.49982       -4.40547       -0.49503
H          3.09082       -5.88104        0.26951
H          2.91941       -3.29303        1.70957
H          1.94960       -3.71691        3.12518
H          3.26411       -4.76388        2.59639
H         -3.15551       -5.25707       -1.55115
H         -4.86364       -4.92218       -1.28138
H         -3.75190       -3.60909       -1.67139
H         -3.53535       -5.50258        2.20506
H         -4.79876       -5.99413        1.07542
H         -3.12536       -6.42749        0.76644
H         -5.61806       -3.76361        0.92031
H         -4.38361       -3.04606        1.95270
H         -4.66703       -2.41839        0.32552
H         -1.86875       -6.96295       -1.12427
H         -0.71005       -5.64404       -1.42202
H         -0.15477       -7.21400       -0.78869
C          4.91867        3.02434       -1.27232
C          3.78187        0.40398       -3.33356
C          5.57073       -0.37408       -1.73190
C          3.63175       -1.83558       -2.22079
C          3.32977        4.18738        1.62010
C          3.00696        2.54509        3.47864
C          5.15902        2.56879        2.24607
H          4.32054       -0.03877       -4.17086
H          2.71799        0.38716       -3.56945
H          4.08515        1.44510       -3.25062
H          6.12214       -0.89122       -2.51676
H          5.97004        0.63415       -1.65969
H          5.76996       -0.87987       -0.78770
H          2.60871       -1.91666       -2.58453
H          4.27060       -2.33490       -2.94882
H          3.70564       -2.38103       -1.28057
H          3.73153        4.92011        2.31943
H          3.75902        4.38676        0.64125
H          2.25411        4.34496        1.54958
H          1.95210        2.81593        3.48820
H          3.09779        1.50549        3.79228
H          3.50239        3.16473        4.22575
H          5.55667        3.23419        3.01196
H          5.68564        2.78282        1.31930
H          5.39089        1.54374        2.53321
H          5.34720        3.91140       -0.80611
H          5.47018        2.82213       -2.19027
H          3.87111        3.20973       -1.51253
