111
-148.55075159
P         -2.45543        2.32690        0.60382
P          0.06193        0.39292        0.40941
C         -1.43011        2.02778        2.06581
C         -0.36470        1.15809        1.98716
C         -2.77310        4.13468        0.38211
C         -2.37816        4.57567       -1.01026
C         -1.73455        2.63955        3.26504
H         -2.55740        3.33402        3.31417
C         -0.98374        2.35724        4.39302
H         -1.22211        2.83275        5.33040
C          0.06200        1.45744        4.32062
H          0.63839        1.22623        5.20126
C          0.36973        0.85339        3.11477
H          1.17096        0.13391        3.04820
Pd        -1.58194        1.03686       -1.10736
Cl        -3.36851        1.69244       -2.30025
Cl        -0.70601       -0.33152       -2.65354
C         -4.28126        4.26709        0.67974
C         -4.19409        1.70649        0.78742
H         -1.32286        4.37179       -1.20774
H         -2.96198        4.04133       -1.76174
H         -2.55050        5.64465       -1.15708
H         -4.70365        5.08314        0.07546
H         -4.43152        4.56695        1.72725
H         -4.31632        0.90499        0.04613
C         -5.04235        2.93841        0.41148
C         -4.46292        1.17684        2.18040
H         -2.17038        4.65798        1.13693
H         -5.99135        2.91524        0.96672
H         -5.31950        2.88830       -0.65182
H         -3.74938        0.39694        2.45572
H         -4.37937        1.97469        2.91959
H         -5.46915        0.75932        2.26282
C         -0.79202       -4.06313        0.72777
C         -1.85061       -3.12240        0.81533
C         -1.53713       -1.77486        0.74755
C         -0.25182       -1.36268        0.51190
C          0.75593       -2.26864        0.31199
C          0.51292       -3.63002        0.37815
O         -1.02870       -5.43078        1.02861
C         -3.31975       -3.53699        0.99015
H         -2.29720       -1.02361        0.87827
H          1.74319       -1.89460        0.10557
C          1.66283       -4.60909        0.09481
C          4.39025        1.01850       -0.90367
C          3.41117        0.59469       -1.83689
C          2.11370        0.42447       -1.38768
C          1.75156        0.73474       -0.10304
C          2.67288        1.26238        0.76518
C          3.99263        1.44685        0.38825
O          5.76813        0.97718       -1.24585
C          3.73488        0.29464       -3.30898
H          1.35496        0.03470       -2.04202
H          2.35045        1.52337        1.75589
C          4.98268        2.05777        1.39235
C         -3.65964       -3.58654        2.48715
C         -4.25506       -2.51617        0.30196
C         -3.59356       -4.90403        0.33730
C          2.66117       -3.99794       -0.91504
C          2.40821       -4.91007        1.40361
C          1.13767       -5.91504       -0.52860
C         -0.86765       -5.75461        2.40382
H         -3.49910       -2.61354        2.95107
H         -4.70125       -3.86673        2.64201
H         -3.03568       -4.30876        3.00867
H         -4.25006       -1.55603        0.81441
H         -3.95640       -2.35335       -0.73335
H         -5.28489       -2.87236        0.30191
H         -3.31048       -4.88952       -0.71467
H         -3.02942       -5.69618        0.82309
H         -4.64965       -5.16481        0.40134
H          2.14275       -3.65983       -1.81177
H          3.20063       -3.15255       -0.49034
H          3.40659       -4.73349       -1.21649
H          1.74617       -5.36277        2.13813
H          3.23868       -5.59434        1.23167
H          2.80914       -3.99451        1.83796
H          0.56662       -5.70566       -1.43249
H          1.95846       -6.58168       -0.79195
H          0.48791       -6.44968        0.15990
H         -1.80527       -6.14292        2.80111
H         -0.10588       -6.52681        2.51017
H         -0.57114       -4.87107        2.97053
C          6.39138       -0.27398       -0.98329
C          4.90588        1.15948       -3.80979
C          4.07158       -1.19617       -3.46222
C          2.52026        0.62097       -4.20842
C          6.06679        2.87844        0.67023
C          4.25847        3.02013        2.36105
C          5.63071        0.93305        2.21401
H          4.69048        2.21752       -3.66436
H          5.82538        0.93098       -3.27715
H          5.09005        0.99349       -4.87091
H          3.22689       -1.81330       -3.15797
H          4.30969       -1.43833       -4.49760
H          4.92360       -1.47445       -2.84641
H          2.17035        1.63783       -4.03293
H          2.78438        0.53479       -5.26207
H          1.69034       -0.06109       -4.03107
H          6.67805        2.24922        0.02789
H          5.61374        3.65030        0.04900
H          6.73152        3.36398        1.38428
H          3.58429        2.48746        3.03021
H          4.97575        3.55052        2.98702
H          3.68151        3.76286        1.81071
H          4.87289        0.36071        2.74865
H          6.32868        1.33704        2.94687
H          6.17687        0.24316        1.57530
H          6.75991       -0.70385       -1.91444
H          7.24149       -0.12463       -0.31773
H          5.68336       -0.96261       -0.52031
