72
-98.09793067
Fe         0.02966        2.81180        0.00119
P          1.92761       -0.05715       -0.01136
P         -1.79252       -0.07215        0.00781
C          1.45090        1.57418        0.66755
C          0.44563        1.79914        1.69280
C          0.38138        3.22679        1.95514
C          1.35584        3.88177        1.09909
C          2.03674        2.85914        0.32126
C         -1.39419        1.57775       -0.68929
C         -1.98597        2.84888       -0.30023
C         -1.35045        3.89713       -1.08047
C         -0.39157        3.27484       -1.97453
C         -0.42552        1.84270       -1.73754
C          3.37624       -0.64503        0.98697
C          4.53774        0.10683        0.31666
C          2.83003        0.12976       -1.62750
C          4.31301        0.28701       -1.21065
C         -3.06778       -0.82426       -1.10743
C         -4.32853       -0.03716       -0.71415
C         -2.93327        0.17391        1.45739
C         -4.31183        0.38826        0.78652
H         -0.15153        1.02588        2.17817
H         -0.27465        3.71795        2.67790
H          1.56741        4.95345        1.07217
H          2.83728        3.02057       -0.40386
H         -2.75804        2.99059        0.45856
H          0.16306        1.09053       -2.26099
Cl         1.64806       -3.08890        0.37686
Cl        -1.52003       -3.09041        0.16858
Pd         0.07941       -1.50136        0.05386
H          3.47215       -1.72335        0.81737
C          3.24766       -0.35208        2.47759
H          2.45561        1.04220       -2.10628
C          2.62060       -1.07872       -2.54262
H          5.49252       -0.40308        0.51881
H          4.62919        1.09318        0.79433
H          4.70486        1.25932       -1.54427
H          4.91008       -0.45964       -1.75219
H         -1.57574        4.96451       -1.02378
H          0.23561        3.78985       -2.70556
H          4.21052       -0.55530        2.96661
H          3.41296       -1.09036       -3.30430
H         -3.17860       -1.87703       -0.82482
C         -2.67902       -0.71155       -2.57520
H         -2.59778        1.07606        1.98299
C         -2.94947       -1.01367        2.41759
H         -5.23397       -0.61821       -0.94761
H         -4.38630        0.85724       -1.35146
H         -4.62978        1.43645        0.88819
H         -5.06591       -0.18913        1.33980
H         -2.53633        0.34787       -2.82533
H         -3.17437       -1.92266        1.84452
C          2.14512       -1.14832        3.15051
H          1.17872       -0.91521        2.70724
H          2.30244       -2.22196        3.03202
H          2.07599       -0.93789        4.22016
C          1.26733       -1.11931       -3.23193
H          0.45506       -1.13136       -2.50786
H          1.12157       -0.24769       -3.87275
H          1.15420       -2.00696       -3.85859
C         -3.69809       -1.34301       -3.51138
H         -3.83708       -2.40161       -3.28405
H         -4.67382       -0.86289       -3.41866
H         -3.39442       -1.26830       -4.55805
C         -1.66545       -1.19537        3.20635
H         -0.83058       -1.41573        2.54444
H         -1.41293       -0.29552        3.77022
H         -1.73571       -2.02088        3.91840
H          3.07658        0.72384        2.61347
H          2.77647       -1.99126       -1.95176
H         -1.69706       -1.17887       -2.72164
H         -3.79217       -0.89583        3.11319
