87
-129.18700605
P         -1.55340       -0.31151       -0.35052
P          1.67351        0.38240        0.05362
C         -1.22114        0.93780       -1.59889
C          1.53408       -0.71117       -1.37973
C         -0.16765        0.76227       -2.48782
C          0.08993        1.76680       -3.44202
C         -0.72084        2.88921       -3.47620
C         -1.76508        3.04072       -2.58869
C         -2.01144        2.05991       -1.64858
C          2.28282       -1.86341       -1.33807
C          2.17733       -2.80630       -2.34122
C          1.30235       -2.59549       -3.38392
C          0.53059       -1.44826       -3.44567
C          0.65603       -0.47487       -2.43537
Cl         1.16407        0.29464        3.22427
Cl        -1.50875       -1.51311        2.67707
H         -2.38321        3.92279       -2.62436
H         -2.82676        2.16920       -0.95311
H          2.95331       -2.03147       -0.51182
H          2.76686       -3.70759       -2.30132
H         -0.52066        3.65474       -4.20655
H          1.20396       -3.33371       -4.16172
C         -2.06298       -4.39622       -2.26637
C         -1.17401       -4.24864       -1.21040
C         -1.05314       -2.99876       -0.61567
C         -1.77959       -1.92971       -1.08584
C         -2.65164       -2.08069       -2.13814
C         -2.79847       -3.32231       -2.72849
H         -2.17378       -5.36337       -2.72633
C         -0.38697       -5.40436       -0.70164
H         -0.37989       -2.86334        0.21395
H         -3.20324       -1.22606       -2.49761
H         -3.48133       -3.44935       -3.55247
C         -5.19787        0.88586        2.10999
C         -5.23535       -0.26401        1.34611
C         -4.13605       -0.62672        0.59109
C         -3.00952        0.16147        0.60460
C         -2.96889        1.30498        1.36884
C         -4.06684        1.69020        2.12759
H         -6.04955        1.16527        2.70652
H         -6.11798       -0.88238        1.34357
H         -4.14724       -1.52793        0.00047
H         -2.07598        1.90650        1.38150
C         -4.00367        2.91196        2.97483
C          5.57183       -0.42301        2.26752
C          5.43362        0.72237        1.50879
C          4.24973        0.96679        0.83860
C          3.21344        0.06728        0.93275
C          3.34978       -1.07464        1.68831
C          4.53480       -1.34046        2.36353
H          6.48935       -0.61092        2.79870
H          6.24565        1.42783        1.44249
H          4.12619        1.86015        0.24877
H          2.52213       -1.75941        1.77466
C          4.66157       -2.55728        3.21073
C          1.10606        4.80549       -0.81996
C          1.99691        4.06936       -1.57668
C          2.18562        2.72625       -1.30842
C          1.48212        2.13407       -0.28632
C          0.61672        2.87161        0.48847
C          0.40979        4.22044        0.22881
H          0.94393        5.84693       -1.03979
H          2.53482        4.53744       -2.38469
H          2.86132        2.13138       -1.90235
H          0.10879        2.40169        1.31268
C         -0.57564        4.99896        1.02687
Pd        -0.06432       -0.31686        1.44938
C          1.21585        1.65121       -4.40994
C         -0.42054       -1.27663       -4.57922
H          1.78245        2.58213       -4.45981
H          1.90953        0.85968       -4.12435
H          0.84588        1.43048       -5.41193
H          0.10721       -0.99355       -5.49070
H         -0.95872       -2.20450       -4.77797
H         -1.16347       -0.50755       -4.36549
H         -0.20267       -6.13434       -1.49112
H          0.58176       -5.07971       -0.31863
H         -0.91750       -5.90786        0.10764
H         -3.42921        3.69929        2.48449
H         -5.00073        3.30570        3.17693
H         -3.52666        2.69371        3.93131
H          4.12319       -3.39835        2.77135
H          5.70523       -2.85396        3.32394
H          4.25138       -2.37852        4.20560
H         -0.62494        4.63371        2.05375
H         -0.30780        6.05580        1.06300
H         -1.57337        4.91795        0.59289
