171
-217.84690803
P         -1.61291        0.43517       -0.26613
P          1.64000       -0.38757       -0.30424
C         -0.87168        1.39070       -1.59217
C          0.86449       -1.34083       -1.61274
C         -0.09217        0.76898       -2.56156
C          0.54000        1.56748       -3.53369
C          0.34550        2.93881       -3.51506
C         -0.44751        3.53276       -2.55576
C         -1.04945        2.75240       -1.58850
C          1.03430       -2.70366       -1.61810
C          0.41382       -3.47671       -2.57931
C         -0.38487       -2.87400       -3.52814
C         -0.57004       -1.50125       -3.53933
C          0.07529       -0.71110       -2.56864
Cl         1.64123        0.34884        2.88292
Cl        -1.50481       -0.39564        2.91747
C         -1.43392       -0.88744       -4.58488
C          1.40847        0.96664       -4.58299
H         -0.59454        4.60039       -2.55690
H         -1.66070        3.20679       -0.82539
H          1.65686       -3.16581       -0.86937
H          0.55384       -4.54525       -2.58633
H          0.82865        3.54391       -4.26364
H         -0.87825       -3.47306       -4.27489
C         -3.89497       -3.22451       -1.61036
C         -2.91118       -3.36930       -0.64044
C         -2.21042       -2.23434       -0.25250
C         -2.47214       -1.02384       -0.84315
C         -3.43488       -0.89939       -1.81479
C         -4.17640       -2.00520       -2.21384
H         -4.47715       -4.08425       -1.88619
H         -1.46846       -2.27839        0.52573
H         -3.61368        0.07288       -2.24194
C         -4.48808        2.87497        2.26153
C         -4.98838        1.87444        1.43751
C         -4.08261        1.16073        0.66635
C         -2.74002        1.44264        0.71304
C         -2.26270        2.43786        1.53003
C         -3.13205        3.17231        2.32774
H         -5.16452        3.43239        2.88172
H         -4.42968        0.36251        0.03434
H         -1.20263        2.62145        1.55723
C          4.39500       -2.90640        2.27557
C          3.03294       -3.18268        2.28621
C          2.21176       -2.42820        1.45848
C          2.73300       -1.42026        0.68584
C          4.07850       -1.14862        0.70397
C          4.94173       -1.89684        1.49364
H          5.05305       -3.48146        2.89925
H          1.15132       -2.61243        1.43015
H          4.44927       -0.33581        0.10596
C          3.96720        3.19887       -1.77089
C          2.97199        3.39131       -0.82121
C          2.26351        2.27722       -0.38907
C          2.53153        1.03862       -0.91604
C          3.50522        0.86713       -1.86940
C          4.25191        1.95240       -2.31381
H          4.55324        4.04377       -2.08213
H          1.50252        2.36334        0.36697
H          3.68379       -0.12386       -2.25112
Pd         0.03388        0.07635        1.33758
C         -1.44038       -4.70416        0.93947
C         -2.66338       -4.73911        0.00413
C         -2.40205       -5.78771       -1.09352
C         -3.90179       -5.14085        0.82408
H         -1.60392       -4.02380        1.77470
H         -1.24038       -5.69180        1.35469
H         -0.55179       -4.38159        0.39783
H         -2.18189       -6.76181       -0.65707
H         -3.26535       -5.90541       -1.74701
H         -1.55301       -5.49517       -1.71007
H         -3.75390       -6.10634        1.30753
H         -4.10572       -4.40197        1.59891
H         -4.78572       -5.21400        0.19127
C         -5.38431       -0.50463       -3.87789
C         -5.33292       -1.89659       -3.21774
C         -6.65889       -2.13463       -2.47250
C         -5.16628       -2.95405       -4.32594
H         -4.45140       -0.27940       -4.39336
H         -6.18859       -0.45441       -4.61173
H         -5.56707        0.27551       -3.13948
H         -7.50846       -2.05460       -3.15042
H         -6.68261       -3.12543       -2.01981
H         -6.79083       -1.40159       -1.67690
H         -4.21212       -2.83392       -4.83724
H         -5.20417       -3.96496       -3.92254
H         -5.95884       -2.86618       -5.06891
C         -6.97396        1.72155       -0.08413
C         -6.47950        1.51793        1.36010
C         -7.32637        2.39915        2.29775
C         -6.66929        0.04450        1.76815
H         -8.03417        1.48464       -0.17128
H         -6.83132        2.75546       -0.39780
H         -6.43173        1.08372       -0.78095
H         -7.02072        2.27304        3.33623
H         -7.23445        3.45284        2.03497
H         -8.38122        2.13326        2.22993
H         -7.72249       -0.23467        1.74446
H         -6.13262       -0.62568        1.09748
H         -6.29652       -0.12560        2.77795
C         -3.32498        5.58827        2.98521
C         -2.63385        4.24919        3.30182
C         -1.11062        4.45143        3.19295
C         -2.96577        3.81634        4.74139
H         -2.96806        6.37697        3.64733
H         -3.12191        5.89214        1.95841
H         -4.40515        5.51701        3.10612
H         -0.83413        4.76325        2.18679
H         -0.77106        5.22326        3.88344
H         -0.57299        3.53450        3.43400
H         -2.49854        2.85869        4.97050
H         -2.60615        4.54974        5.46285
H         -4.04021        3.70629        4.88350
C          1.17691       -3.74724        3.88786
C          2.42315       -4.28922        3.15820
C          3.41990       -4.78709        4.22322
C          2.02827       -5.47104        2.25711
H          1.42967       -2.86578        4.47669
H          0.39123       -3.46608        3.18894
H          0.76273       -4.49679        4.56178
H          4.28623       -5.26212        3.76375
H          3.76675       -3.96343        4.84705
H          2.95232       -5.52471        4.87536
H          1.55805       -6.26586        2.83584
H          1.32911       -5.15540        1.48477
H          2.90474       -5.88620        1.75987
C          6.83475       -1.17327        2.96540
C          6.45047       -1.61715        1.54259
C          6.85287       -0.50358        0.55535
C          7.22179       -2.89670        1.16905
H          7.89923       -0.94878        3.03065
H          6.28192       -0.27841        3.25070
H          6.61132       -1.95052        3.69533
H          6.35960        0.43687        0.80050
H          7.92812       -0.32819        0.58629
H          6.59150       -0.77615       -0.46698
H          7.01952       -3.70310        1.87281
H          6.93736       -3.24043        0.17468
H          8.29688       -2.71770        1.16943
C          2.49143        5.78951       -1.40076
C          2.71830        4.79207       -0.24879
C          3.94099        5.22414        0.57939
C          1.47410        4.81217        0.65929
H          1.66004        5.47030       -2.02794
H          2.26152        6.78297       -1.01607
H          3.37348        5.87640       -2.03367
H          4.12050        4.52277        1.39407
H          4.83978        5.25904       -0.03552
H          3.79069        6.21341        1.01127
H          1.27911        5.81974        1.02630
H          0.59046        4.47904        0.11563
H          1.61090        4.16740        1.52713
C          5.22896        2.79251       -4.47887
C          5.40724        1.79986       -3.31383
C          5.46809        0.37382       -3.89522
C          6.73397        2.09311       -2.59023
H          6.02848        2.67910       -5.21085
H          4.28177        2.62751       -4.99006
H          5.24552        3.82427       -4.13055
H          5.65781       -0.36206       -3.11415
H          4.53521        0.11417       -4.39501
H          6.27118        0.28848       -4.62711
H          6.75012        3.10831       -2.19495
H          6.87743        1.40824       -1.75530
H          7.58115        1.98292       -3.26692
H         -1.78046        0.10241       -4.28485
H          1.70464       -0.05051       -4.32318
H         -2.31447       -1.50251       -4.77099
H         -0.89301       -0.78555       -5.52663
H          2.31976        1.55070       -4.71062
H          0.89377        0.93479       -5.54426
