111
-148.56018583
P         -2.58799        2.19407        0.48547
P          0.02007        0.35241        0.43359
C         -1.65158        1.90204        2.00904
C         -0.51591        1.12166        1.97639
C         -3.25778        3.91588        0.39929
C         -2.48801        4.75040       -0.60110
C         -2.07892        2.44680        3.20296
H         -2.97966        3.03806        3.22707
C         -1.35738        2.21895        4.36210
H         -1.68961        2.64544        5.29449
C         -0.21419        1.44413        4.32550
H          0.34812        1.26655        5.22742
C          0.20510        0.89027        3.12927
H          1.09290        0.27904        3.08590
Pd        -1.22330        1.43440       -1.19869
Cl        -2.69298        2.14713       -2.73029
Cl         0.25250        0.57454       -2.66009
C         -4.73818        3.68699        0.03949
C         -4.15738        1.21948        0.40947
H         -2.88647        5.76567       -0.66516
H         -1.43068        4.81623       -0.33326
H         -2.54597        4.31035       -1.59793
H         -4.84698        3.74065       -1.05260
H         -5.36077        4.50214        0.43877
H         -4.18642        0.76697       -0.59064
C         -5.24383        2.30353        0.54044
C         -4.19370        0.15601        1.48656
H         -3.16924        4.34083        1.40703
H         -5.53935        2.38235        1.59573
H         -6.15415        1.99962        0.00155
H         -3.35827       -0.54100        1.38623
H         -4.12219        0.60758        2.47774
H         -5.12238       -0.41830        1.45061
C         -1.13766       -4.05671        0.34895
C         -0.18077       -3.59155        1.28675
C          0.15690       -2.24799        1.26847
C         -0.46999       -1.37198        0.42095
C         -1.47578       -1.79876       -0.40674
C         -1.85859       -3.12835       -0.44391
O         -1.34602       -5.45117        0.17745
C          0.50634       -4.52273        2.29827
H          0.93043       -1.86714        1.91267
H         -1.95325       -1.08120       -1.04885
C         -3.00926       -3.54642       -1.37300
C          4.48189        0.84346       -0.34249
C          3.82118       -0.35236       -0.72963
C          2.46148       -0.45571       -0.48850
C          1.78068        0.53164        0.17341
C          2.43585        1.63691        0.65021
C          3.79708        1.80211        0.45133
O          5.79224        1.11485       -0.81318
C          4.52212       -1.54707       -1.39781
H          1.90937       -1.31273       -0.83587
H          1.86666        2.38043        1.18220
C          4.48093        3.00611        1.12148
C          1.79255       -5.08974        1.67908
C          0.87837       -3.74971        3.58415
C         -0.42951       -5.66990        2.72080
C         -2.44052       -3.88777       -2.75861
C         -3.77666       -4.75172       -0.80031
C         -4.03194       -2.39787       -1.53129
C         -0.49324       -6.04874       -0.79122
H          2.30011       -5.75683        2.37536
H          1.58100       -5.64915        0.77104
H          2.48089       -4.28600        1.42084
H          1.66541       -3.01933        3.40245
H          0.01101       -3.22715        3.98683
H          1.24551       -4.43028        4.35204
H          0.03339       -6.29141        3.48692
H         -1.36269       -5.27572        3.12175
H         -0.67374       -6.31342        1.87936
H         -1.92316       -3.02810       -3.18405
H         -1.72801       -4.70715       -2.70149
H         -3.23436       -4.17851       -3.44609
H         -4.63007       -5.00705       -1.42797
H         -3.14225       -5.63200       -0.73483
H         -4.14569       -4.53080        0.20070
H         -3.61156       -1.55286       -2.07439
H         -4.90527       -2.73262       -2.09047
H         -4.37385       -2.04719       -0.55835
H          0.09290       -6.83993       -0.32401
H         -1.09488       -6.49391       -1.58346
H          0.17766       -5.30296       -1.21964
C          5.79781        1.80103       -2.05395
C          4.07512       -2.85532       -0.70812
C          4.12857       -1.60200       -2.88325
C          6.05364       -1.47397       -1.27202
C          4.01261        3.10960        2.59033
C          6.01326        2.86913        1.14837
C          4.09278        4.29459        0.37779
H          4.26916       -2.80876        0.36307
H          3.01306       -3.04716       -0.85174
H          4.61578       -3.71154       -1.11064
H          4.44652       -0.70321       -3.40789
H          4.58661       -2.45889       -3.37647
H          3.04822       -1.68653       -2.99661
H          6.52370       -2.37411       -1.66743
H          6.45452       -0.62560       -1.82148
H          6.34876       -1.36589       -0.22890
H          2.94821        3.32661        2.66266
H          4.20321        2.17718        3.12102
H          4.54180        3.90705        3.11138
H          6.47073        3.68320        1.71013
H          6.30686        1.92824        1.61246
H          6.42888        2.88921        0.14375
H          4.54438        5.16723        0.84897
H          3.01220        4.43419        0.37864
H          4.42242        4.26529       -0.65890
H          5.27866        1.21249       -2.80857
H          5.29505        2.76127       -1.95237
H          6.82829        1.96513       -2.36971
