87
-129.18614955
P         -1.54697       -0.30235       -0.37224
P          1.71523        0.40014        0.07953
C         -1.18800        0.92968       -1.62935
C          1.57854       -0.71004       -1.34178
C         -0.12102        0.73350       -2.49737
C          0.14683        1.71230       -3.47527
C         -0.66627        2.83122       -3.55046
C         -1.72209        3.00448       -2.68051
C         -1.98005        2.04798       -1.71864
C          2.32290       -1.86360       -1.26453
C          2.21627       -2.83494       -2.24030
C          1.34223       -2.65236       -3.28913
C          0.57294       -1.50578       -3.38464
C          0.70075       -0.50274       -2.40436
Cl         1.04688        0.07467        3.31418
Cl        -1.54723       -1.61394        2.52544
H         -2.34150        3.88376       -2.74813
H         -2.80659        2.17168       -1.03881
H          2.98721       -2.01063       -0.42864
H          2.80353       -3.73611       -2.17367
H         -0.45885        3.57677       -4.29921
H          1.24259       -3.41251       -4.04535
C         -2.25673       -4.33356       -2.33747
C         -1.34896       -4.24101       -1.29132
C         -1.15659       -3.00401       -0.68837
C         -1.85572       -1.90128       -1.12037
C         -2.75898       -2.00166       -2.15227
C         -2.96313       -3.22541       -2.76261
H         -2.40360       -5.28450       -2.82058
C         -0.55690       -5.42311       -0.85646
H         -0.44762       -2.90511        0.11620
H         -3.28658       -1.12095       -2.48377
H         -3.66548       -3.31116       -3.57545
C         -5.11520        1.04589        2.12070
C         -5.19843       -0.11715        1.38076
C         -4.12108       -0.52882        0.61925
C         -2.97272        0.22694        0.59824
C         -2.88669        1.38360        1.33793
C         -3.95563        1.80885        2.11633
H         -5.95391        1.36898        2.71351
H         -6.10072       -0.70615        1.39968
H         -4.16795       -1.44090        0.04740
H         -1.98239        1.96668        1.31044
C         -3.85827        3.06965        2.90098
C          5.68478       -0.23962        2.21445
C          5.51041        0.85499        1.39093
C          4.30049        1.05122        0.75174
C          3.27624        0.15226        0.93839
C          3.44928       -0.94039        1.75646
C          4.65466       -1.14782        2.41586
H          6.62692       -0.39596        2.71168
H          6.31588        1.55626        1.24637
H          4.14919        1.90302        0.10889
H          2.63702       -1.63360        1.90045
C          4.83742       -2.33671        3.29225
C          0.89109        4.80659       -0.65517
C          1.76306        4.13121       -1.48684
C          2.03244        2.79357       -1.26477
C          1.42469        2.14560       -0.21579
C          0.58369        2.82433        0.63609
C          0.29716        4.16714        0.42436
H          0.66618        5.84354       -0.83784
H          2.22280        4.64193       -2.31698
H          2.69603        2.24566       -1.91459
H          0.16967        2.31452        1.48924
C         -0.66024        4.88464        1.30903
Pd        -0.02291       -0.40044        1.40034
C          1.28415        1.57114       -4.42624
C         -0.37752       -1.36552       -4.52306
H          1.84578        2.50338       -4.50183
H          1.97910        0.79398       -4.10620
H          0.92666        1.31378       -5.42402
H         -1.11934       -0.58945       -4.33198
H          0.15093       -1.10958       -5.44212
H         -0.91718       -2.29790       -4.69489
H         -1.11070       -6.34935       -1.01578
H          0.37819       -5.48804       -1.41465
H         -0.31146       -5.36172        0.20479
H         -4.01569        3.93841        2.26022
H         -4.60295        3.09917        3.69752
H         -2.87497        3.16513        3.36396
H          5.63123       -2.17201        4.02211
H          3.92237       -2.55902        3.84327
H          5.09834       -3.21664        2.70258
H         -1.67964        4.78897        0.93230
H         -0.63622        4.48138        2.32244
H         -0.42119        5.94726        1.36938
