111
-148.55175049
P         -2.60567        1.96931        0.27748
P          0.17076        0.46035        0.50658
C         -1.76149        1.85705        1.88338
C         -0.53183        1.24069        1.96910
C         -3.63049        3.51086        0.18983
C         -3.29798        4.33737       -1.03247
C         -2.34846        2.37390        3.02134
H         -3.31935        2.83687        2.95784
C         -1.69592        2.27994        4.23856
H         -2.15440        2.68443        5.12618
C         -0.46107        1.66551        4.31850
H          0.04517        1.58921        5.26669
C          0.12051        1.13817        3.17975
H          1.07485        0.63718        3.22664
Pd        -0.99406        1.36843       -1.27486
Cl        -2.42423        1.98343       -2.88557
Cl         0.66223        0.70558       -2.64133
C         -5.07435        2.96578        0.20283
C         -3.91634        0.68205        0.05177
H         -3.53161        3.78569       -1.94376
H         -3.87155        5.26693       -1.05711
H         -2.23622        4.59252       -1.06374
H         -5.72447        3.63602       -0.37830
H         -5.47245        2.98403        1.22804
H         -3.58847        0.03391       -0.77284
C         -5.15038        1.51478       -0.35129
C         -4.10323       -0.12646        1.31702
H         -3.41502        4.08597        1.10014
H         -6.06372        1.01246       -0.00039
H         -5.23302        1.54982       -1.44768
H         -4.40648        0.51776        2.14443
H         -4.87112       -0.89402        1.19407
H         -3.17495       -0.62135        1.60959
C         -1.47541       -3.77417        0.18472
C         -0.94786       -3.12793       -0.96197
C         -0.45753       -1.84307       -0.81801
C         -0.41179       -1.23202        0.40663
C         -0.81455       -1.89488        1.53591
C         -1.31656       -3.18381        1.46512
O         -2.19968       -4.98790        0.04608
C         -0.94439       -3.77029       -2.35708
H         -0.11762       -1.28418       -1.67227
H         -0.74898       -1.38072        2.47854
C         -1.71160       -3.90579        2.76297
C          4.69486        0.75324        0.08693
C          4.02824       -0.45546       -0.23750
C          2.65204       -0.50103       -0.09567
C          1.95354        0.56451        0.40816
C          2.60373        1.69957        0.81652
C          3.98122        1.80887        0.71123
O          6.06380        0.92299       -0.25101
C          4.75794       -1.69210       -0.78429
H          2.09959       -1.37248       -0.39988
H          2.01424        2.50884        1.21174
C          4.67397        3.07412        1.24149
C         -2.24110       -3.39240       -3.08927
C          0.25701       -3.26186       -3.18730
C         -0.80997       -5.30078       -2.26507
C         -3.17809       -3.59273        3.09709
C         -1.51069       -5.42669        2.63345
C         -0.82733       -3.43351        3.93940
C         -3.59467       -4.80568       -0.16255
H         -3.11620       -3.74520       -2.54862
H         -2.32638       -2.31023       -3.18689
H         -2.26538       -3.82458       -4.08922
H          1.19055       -3.39891       -2.64260
H          0.33548       -3.80679       -4.12767
H          0.15843       -2.20677       -3.43780
H         -0.74550       -5.74881       -3.25632
H          0.08687       -5.57409       -1.71008
H         -1.66328       -5.74468       -1.75864
H         -3.48649       -4.09944        4.01118
H         -3.32095       -2.52237        3.24211
H         -3.84188       -3.91033        2.29658
H         -2.16434       -5.85002        1.87487
H         -0.48275       -5.65547        2.35420
H         -1.72744       -5.93229        3.57412
H         -1.01598       -4.03273        4.82989
H          0.22965       -3.52643        3.69112
H         -1.02800       -2.39638        4.20412
H         -4.15122       -5.31337        0.62510
H         -3.84481       -3.74390       -0.15859
H         -3.88230       -5.24267       -1.11861
C          6.27364        1.47182       -1.54616
C          4.77998       -1.62562       -2.31905
C          6.19259       -1.78370       -0.23399
C          4.02976       -2.98736       -0.35655
C          3.89478        3.65864        2.44178
C          6.09614        2.76124        1.74160
C          4.72552        4.13068        0.12764
H          5.27932       -2.49725       -2.74128
H          3.76601       -1.59065       -2.71707
H          5.30129       -0.73701       -2.66719
H          6.79814       -0.94213       -0.56033
H          6.18592       -1.78728        0.85546
H          6.68505       -2.69462       -0.57344
H          3.05772       -3.08343       -0.83757
H          4.61056       -3.86695       -0.63328
H          3.88155       -3.01006        0.72275
H          4.44850        4.47748        2.90063
H          2.92745        4.05721        2.13990
H          3.72976        2.89773        3.20422
H          6.73551        2.41910        0.93168
H          6.56165        3.64496        2.17730
H          6.07271        1.98058        2.50118
H          3.72128        4.37727       -0.21618
H          5.28962        3.77205       -0.72997
H          5.19663        5.04769        0.48062
H          6.83940        0.76768       -2.15591
H          5.31823        1.68352       -2.02805
H          6.85173        2.39209       -1.46367
