171
-217.83878970
P         -1.65984        0.74380        0.24962
P          1.43715       -0.23985       -0.39276
C         -0.99877        1.72143       -1.11817
C          0.45824       -1.06375       -1.66241
C         -0.42846        1.17690       -2.26243
C          0.16326        2.04271       -3.20160
C          0.13556        3.40877       -2.97689
C         -0.44596        3.93188       -1.84213
C         -1.00219        3.08020       -0.90760
C          0.55281       -2.42089       -1.84740
C         -0.21095       -3.04509       -2.81377
C         -1.07177       -2.30020       -3.59336
C         -1.18319       -0.92911       -3.42437
C         -0.38649       -0.29508       -2.45219
Cl         2.29387        1.45535        2.32113
Cl        -0.65589        0.89214        3.46374
C         -2.12269       -0.13946       -4.26809
C          0.84979        1.52797       -4.41821
H         -0.45552        4.99687       -1.67713
H         -1.43340        3.47262        0.00166
H          1.22668       -2.99473       -1.23549
H         -0.13825       -4.11127       -2.95372
H          0.59021        4.06488       -3.70004
H         -1.66671       -2.78549       -4.34827
C         -2.96076       -3.57435       -0.23046
C         -1.85585       -3.30631        0.56959
C         -1.43283       -1.98718        0.67220
C         -2.09888       -0.98470        0.00568
C         -3.19945       -1.26846       -0.76478
C         -3.65255       -2.57396       -0.90285
H         -3.30588       -4.58649       -0.31453
H         -0.58903       -1.74135        1.29186
H         -3.72906       -0.45913       -1.23728
C         -5.45467        2.80615        1.62896
C         -5.22917        2.62699        0.26837
C         -4.04947        2.00412       -0.11817
C         -3.14050        1.58306        0.82060
C         -3.37957        1.76920        2.15692
C         -4.54288        2.38690        2.59155
H         -6.36088        3.28487        1.94620
H         -3.83223        1.85131       -1.16251
H         -2.64140        1.43807        2.86475
C          3.94581       -3.38890        1.74660
C          4.07569       -3.20587        0.37611
C          3.29840       -2.22444       -0.22342
C          2.40560       -1.47910        0.50748
C          2.29293       -1.68046        1.86342
C          3.07068       -2.62973        2.51192
H          4.54346       -4.13294        2.23868
H          3.38937       -2.04597       -1.28061
H          1.60388       -1.08443        2.43059
C          4.40222        2.48937       -2.46982
C          3.76430        2.95139       -1.32468
C          2.86550        2.10216       -0.69569
C          2.60419        0.85588       -1.20396
C          3.22803        0.42240       -2.34851
C          4.15089        1.23078       -3.00245
H          5.12722        3.11478       -2.95534
H          2.38170        2.40783        0.21443
H          2.97578       -0.54826       -2.73846
Pd         0.33696        0.78484        1.44733
C          0.31118       -4.52975        0.93433
C         -1.15198       -4.40014        1.38868
C         -1.83318       -5.77202        1.21893
C         -1.20220       -4.01641        2.87930
H          0.83787       -5.28514        1.51700
H          0.36443       -4.81900       -0.11463
H          0.84187       -3.58802        1.05382
H         -1.80224       -6.10004        0.18005
H         -1.32819       -6.53007        1.81761
H         -2.87353       -5.73642        1.54175
H         -0.74889       -4.79001        3.49834
H         -0.67191       -3.08388        3.06484
H         -2.23299       -3.88427        3.20737
C         -4.84466       -2.22848       -3.09333
C         -4.94412       -2.84739       -1.68778
C         -6.12491       -2.21414       -0.92981
C         -5.20779       -4.35740       -1.84521
H         -5.74778       -2.42577       -3.67066
H         -4.71426       -1.14845       -3.04477
H         -4.00038       -2.64985       -3.63710
H         -5.98753       -1.13912       -0.81938
H         -7.06402       -2.38108       -1.45700
H         -6.21566       -2.64182        0.06846
H         -4.37424       -4.84887       -2.34689
H         -5.36053       -4.83463       -0.87750
H         -6.10368       -4.53310       -2.44066
C         -6.68959        1.85773       -1.61849
C         -6.22215        3.08275       -0.81028
C         -5.52529        4.08657       -1.74807
C         -7.45976        3.76513       -0.19681
H         -7.17288        1.12959       -0.96751
H         -7.40390        2.14770       -2.38884
H         -5.85203        1.36409       -2.11017
H         -6.21148        4.44525       -2.51505
H         -5.16359        4.94876       -1.18815
H         -4.67181        3.63323       -2.25101
H         -7.17729        4.64839        0.37577
H         -8.15090        4.08498       -0.97659
H         -7.99846        3.08314        0.46082
C         -6.10937        3.28142        4.38983
C         -4.76918        2.57991        4.09784
C         -3.62974        3.44114        4.67450
C         -4.77620        1.20341        4.78869
H         -6.14246        4.27020        3.93266
H         -6.94850        2.69685        4.01312
H         -6.25263        3.40969        5.46269
H         -3.59126        4.41073        4.17854
H         -3.77137        3.61225        5.74139
H         -2.66216        2.95881        4.54069
H         -4.95313        1.30487        5.85923
H         -5.55973        0.56900        4.37485
H         -3.82489        0.68941        4.65594
C          6.05900       -3.09392       -1.15167
C          5.03325       -4.03400       -0.49135
C          4.22397       -4.76485       -1.57964
C          5.79347       -5.08410        0.34077
H          6.76364       -3.65393       -1.76617
H          5.56903       -2.36061       -1.79082
H          6.62604       -2.55111       -0.39570
H          4.87294       -5.38344       -2.19924
H          3.46982       -5.41052       -1.12983
H          3.71258       -4.06016       -2.23450
H          6.39888       -4.60965        1.11285
H          5.10366       -5.77908        0.81937
H          6.46347       -5.66690       -0.29126
C          2.00465       -1.86696        4.69662
C          3.00654       -2.83345        4.03271
C          4.39897       -2.57168        4.63620
C          2.57204       -4.27805        4.33688
H          0.99492       -2.02323        4.31982
H          1.97890       -2.01737        5.77562
H          2.28203       -0.82866        4.51546
H          5.13992       -3.26532        4.24071
H          4.73180       -1.55952        4.40698
H          4.38201       -2.68440        5.72006
H          1.59669       -4.48623        3.89977
H          3.28061       -4.99891        3.93067
H          2.50291       -4.44674        5.41137
C          4.60175        4.16687        0.69976
C          4.03065        4.33676       -0.72042
C          2.70811        5.12310       -0.65577
C          5.03742        5.14318       -1.56249
H          4.81719        5.13442        1.15253
H          3.90012        3.64408        1.34868
H          5.52635        3.59064        0.67613
H          1.97417        4.61369       -0.03236
H          2.86495        6.11814       -0.23999
H          2.28047        5.23657       -1.65157
H          4.66989        5.28953       -2.57807
H          5.20436        6.12811       -1.12656
H          6.00163        4.63768       -1.61217
C          4.84850        1.77798       -5.36498
C          4.93592        0.74088       -4.22867
C          4.38540       -0.59932       -4.75609
C          6.40809        0.54341       -3.82523
H          5.27652        2.73444       -5.06844
H          5.39101        1.43403       -6.24550
H          3.81350        1.94911       -5.65757
H          4.92780       -0.91633       -5.64670
H          4.48922       -1.38922       -4.01268
H          3.33239       -0.51247       -5.02293
H          6.84944        1.47879       -3.48243
H          6.49180       -0.18125       -3.01560
H          6.99918        0.18105       -4.66612
H         -1.59287        0.36465       -5.07673
H          0.31244        1.81625       -5.32283
H         -2.63427        0.62057       -3.67511
H         -2.88378       -0.77587       -4.72096
H          0.93407        0.44081       -4.40513
H          1.85892        1.93495       -4.48529
