72
-98.09972605
Fe         0.02594        2.75107       -0.02908
P          1.98170       -0.06958       -0.01254
P         -1.85431       -0.09254        0.02241
C          1.47320        1.55086        0.67515
C          0.46467        1.74874        1.70238
C          0.36187        3.17620        1.95026
C          1.34503        3.85597        1.12541
C          2.03395        2.84891        0.33641
C         -1.42315        1.54632       -0.68484
C         -1.96318        2.83968       -0.29436
C         -1.33254        3.87028       -1.10343
C         -0.38274        3.22349       -1.98941
C         -0.41920        1.79856       -1.70424
C          3.42488       -0.66446        0.98552
C          4.58575        0.10116        0.32902
C          2.88538        0.13786       -1.62394
C          4.36574        0.30000       -1.19776
C         -3.12541       -0.84526       -1.09330
C         -4.38618       -0.05573       -0.70424
C         -2.99194        0.17424        1.46832
C         -4.37414        0.36799        0.79752
H         -0.12690        0.96472        2.17623
H         -0.30954        3.65200        2.66886
H          1.53414        4.93144        1.10292
H          2.83637        3.02706       -0.38260
H         -2.73940        3.00268        0.45644
H          0.16302        1.03172       -2.21461
Cl         1.62731       -3.05402        0.34189
Cl        -1.51378       -3.03489        0.21417
Pd         0.07964       -1.43284        0.04137
H          3.52478       -1.74050        0.80319
C          3.28035       -0.38964        2.47807
H          2.50594        1.05233       -2.09504
C          2.68560       -1.06358       -2.55071
H          5.54212       -0.40698        0.52831
H          4.67065        1.08181        0.81960
H          4.75188        1.27958       -1.51654
H          4.97054       -0.43499       -1.74670
H         -1.54619        4.94068       -1.06130
H          0.25353        3.71759       -2.72722
H          4.24219       -0.58382        2.97279
H          3.47865       -1.06017       -3.31178
H         -3.23620       -1.89813       -0.81051
C         -2.72299       -0.73087       -2.55744
H         -2.65884        1.08754        1.97599
C         -2.99012       -0.99773        2.44683
H         -5.29205       -0.63433       -0.94216
H         -4.43895        0.83979       -1.34042
H         -4.70751        1.41128        0.90079
H         -5.11851       -0.22202        1.35055
H         -2.58840        0.32976       -2.80753
H         -3.21509       -1.91683        1.88997
C          2.18419       -1.21029        3.13343
H          1.21798       -0.99561        2.67991
H          2.36397       -2.28004        3.01182
H          2.09828       -1.00689        4.20321
C          1.33308       -1.11140       -3.24257
H          0.51804       -1.15828       -2.52260
H          1.17280       -0.22698       -3.86201
H          1.23784       -1.98481       -3.89183
C         -3.72651       -1.37364       -3.50263
H         -3.85623       -2.43356       -3.27604
H         -4.70810       -0.90391       -3.41878
H         -3.41409       -1.29608       -4.54651
C         -1.69391       -1.15823        3.22088
H         -0.86371       -1.37068        2.54998
H         -1.44662       -0.25179        3.77646
H         -1.74468       -1.98024        3.93857
H          3.09200        0.68212        2.62385
H          2.84958       -1.98050       -1.96894
H         -1.73362       -1.18732       -2.69273
H         -3.82521       -0.87490        3.15072
