87
-129.18403269
P         -1.53545       -0.30215       -0.39186
P          1.63350        0.22134        0.17197
C         -1.12314        0.92635       -1.63607
C          1.51564       -0.85117       -1.28228
C         -0.05334        0.69099       -2.48985
C          0.27101        1.66423       -3.45656
C         -0.49666        2.81439       -3.53867
C         -1.55991        3.02406       -2.68576
C         -1.87003        2.07470       -1.73233
C          2.20121       -2.03989       -1.19360
C          2.10406       -2.98498       -2.19562
C          1.29682       -2.74092       -3.28438
C          0.58718       -1.55784       -3.39410
C          0.71015       -0.58051       -2.38709
Cl         1.01619        0.00119        3.33621
Cl        -1.70487       -1.67620        2.59681
H         -2.14378        3.92687       -2.75923
H         -2.70231        2.22748       -1.06588
H          2.81303       -2.23557       -0.32849
H          2.64459       -3.91411       -2.11804
H         -0.24684        3.55577       -4.27859
H          1.20121       -3.48132       -4.06047
C         -2.35083       -4.29546       -2.39545
C         -1.47571       -4.24437       -1.31902
C         -1.26017       -3.02058       -0.69755
C         -1.88205       -1.88451       -1.16023
C         -2.74044       -1.94053       -2.23297
C         -2.98061       -3.15375       -2.85105
H         -2.53490       -5.24101       -2.87636
C         -0.80363       -5.47290       -0.81606
H         -0.59555       -2.95922        0.14758
H         -3.20877       -1.03506       -2.58604
H         -3.65363       -3.20612       -3.69109
C         -5.14493        1.12249        2.00128
C         -5.22936       -0.04067        1.26173
C         -4.13963       -0.47360        0.53035
C         -2.97730        0.26085        0.53881
C         -2.89038        1.41778        1.27833
C         -3.97207        1.86444        2.02634
H         -5.99324        1.46203        2.57078
H         -6.14229       -0.61335        1.25767
H         -4.18789       -1.38599       -0.04095
H         -1.97504        1.98405        1.27458
C         -3.87273        3.12524        2.81075
C          5.57190       -0.54407        2.32901
C          4.52720       -1.43348        2.48344
C          3.32712       -1.20717        1.83662
C          3.17801       -0.09237        1.04453
C          4.21834        0.79485        0.88929
C          5.43558        0.57885        1.52491
H          6.50511       -0.71393        2.83853
H          4.64372       -2.30001        3.11352
H          2.49827       -1.88538        1.96435
H          4.08497        1.66754        0.27296
C          6.55015        1.55451        1.38022
C          1.03606        4.67762       -0.49341
C          1.87327        3.97152       -1.33505
C          2.07244        2.61842       -1.13425
C          1.42925        1.98515       -0.09733
C          0.62503        2.69358        0.76583
C          0.40900        4.05268        0.57568
H          0.86584        5.72781       -0.65887
H          2.36029        4.47094       -2.15647
H          2.70886        2.04770       -1.79151
H          0.18975        2.19425        1.61455
C         -0.50623        4.80774        1.47363
Pd        -0.16027       -0.48862        1.49307
C          1.42406        1.48958       -4.38270
C         -0.30248       -1.35727       -4.57211
H          2.06780        0.66671       -4.07000
H          1.08023        1.28253       -5.39686
H          2.03656        2.39184       -4.41467
H          0.27943       -1.12287       -5.46424
H         -0.88254       -2.25812       -4.77737
H         -1.01034       -0.54462       -4.40607
H          0.18754       -5.24294       -0.42210
H         -1.38563       -5.93248       -0.01607
H         -0.68084       -6.20954       -1.61127
H         -3.97992        3.99535        2.16149
H         -4.64842        3.17835        3.57586
H         -2.90704        3.19573        3.31349
H          7.51936        1.05894        1.45252
H          6.50782        2.05968        0.41414
H          6.50149        2.31558        2.16022
H         -0.17692        5.84086        1.59286
H         -1.51945        4.82097        1.06937
H         -0.54505        4.35579        2.46580
