111
-148.55508098
P         -2.47376        2.16833        1.08878
P          0.05789        0.34511        0.55693
C         -1.43876        1.63600        2.47946
C         -0.31422        0.87798        2.23652
C         -3.05754        3.91031        1.31717
C         -2.32738        4.86611        0.39907
C         -1.77227        1.97589        3.77500
H         -2.66260        2.55366        3.96204
C         -0.97023        1.56008        4.82397
H         -1.22985        1.82470        5.83600
C          0.16054        0.80538        4.57623
H          0.78365        0.48044        5.39312
C          0.48800        0.45990        3.27730
H          1.35850       -0.14141        3.06593
Pd        -1.33369        1.55889       -0.83077
Cl        -2.93845        2.67069       -1.93880
Cl        -0.05683        1.00947       -2.59397
C         -4.57280        3.80015        1.06547
C         -4.09772        1.28586        1.00330
H         -2.67106        5.89384        0.53760
H         -1.24949        4.84118        0.57650
H         -2.49237        4.60278       -0.64643
H         -4.77080        4.02161        0.00769
H         -5.11414        4.57048        1.63550
H         -4.23679        1.00765       -0.05003
C         -5.10646        2.37836        1.40391
C         -4.10273        0.05800        1.88792
H         -2.86431        4.16500        2.36709
H         -5.29690        2.30557        2.48352
H         -6.07842        2.19809        0.91999
H         -3.32893       -0.64987        1.58232
H         -3.90763        0.32769        2.92748
H         -5.06593       -0.45636        1.85315
C         -1.12300       -3.99777       -0.12232
C         -1.25894       -3.43797        1.17455
C         -0.88905       -2.11642        1.36060
C         -0.47972       -1.34413        0.30550
C         -0.46181       -1.84764       -0.96785
C         -0.81019       -3.16176       -1.22443
O         -1.25800       -5.39901       -0.31048
C         -1.75701       -4.25119        2.37955
H         -0.89929       -1.67544        2.34144
H         -0.16605       -1.18653       -1.76381
C         -0.80320       -3.66365       -2.67631
C          4.40952        0.70122       -0.71657
C          3.92447       -0.52321       -0.18970
C          2.59455       -0.59050        0.19023
C          1.78550        0.51414        0.13244
C          2.27816        1.72767       -0.26829
C          3.59740        1.86366       -0.66875
O          5.68953        0.75314       -1.32984
C          4.79553       -1.78350       -0.07045
H          2.16186       -1.52097        0.51569
H          1.60459        2.56710       -0.29185
C          4.10547        3.24791       -1.10028
C         -0.55555       -4.89607        3.08687
C         -2.49287       -3.33955        3.38787
C         -2.76052       -5.33416        1.94309
C         -1.84794       -4.77450       -2.88561
C         -1.16278       -2.51756       -3.64989
C          0.60043       -4.18131       -3.02598
C         -0.04042       -6.12013       -0.16799
H         -0.87643       -5.47396        3.95321
H         -0.01656       -5.56343        2.41856
H          0.14425       -4.13405        3.42939
H         -3.29139       -2.78470        2.89673
H         -2.94057       -3.93011        4.18687
H         -1.81755       -2.62650        3.85819
H         -2.29325       -6.06998        1.29350
H         -3.16402       -5.86497        2.80501
H         -3.59266       -4.88883        1.39878
H         -1.61759       -5.65365       -2.28913
H         -2.83982       -4.42687       -2.59873
H         -1.88588       -5.08522       -3.92939
H         -2.09521       -2.03671       -3.35552
H         -0.38325       -1.75814       -3.68594
H         -1.28667       -2.89583       -4.66426
H          0.89187       -5.00191       -2.37466
H          0.64042       -4.53724       -4.05510
H          1.34111       -3.38987       -2.91351
H         -0.14067       -6.85295        0.63247
H          0.17914       -6.65377       -1.09257
H          0.78045       -5.43982        0.06276
C          5.67579        0.45646       -2.72081
C          4.66984       -2.61075       -1.35903
C          6.26881       -1.41973        0.18808
C          4.33212       -2.65467        1.11981
C          3.36620        4.36557       -0.32983
C          5.60559        3.41090       -0.79566
C          3.84457        3.43492       -2.60283
H          4.99800       -2.04295       -2.22633
H          5.27222       -3.51701       -1.30184
H          3.63400       -2.90409       -1.52820
H          6.87322       -2.31421        0.33667
H          6.69514       -0.87039       -0.64738
H          6.35963       -0.79724        1.07759
H          5.02354       -3.48031        1.28685
H          4.28610       -2.06618        2.03578
H          3.35046       -3.09191        0.94299
H          2.31727        4.42718       -0.61589
H          3.42027        4.19628        0.74527
H          3.81119        5.33827       -0.53831
H          6.20586        2.70777       -1.36741
H          5.94904        4.41479       -1.04414
H          5.80348        3.23643        0.26139
H          4.36652        2.68348       -3.19020
H          4.17802        4.41647       -2.93853
H          2.78088        3.34530       -2.82245
H          4.65807        0.25116       -3.05541
H          6.07853        1.30144       -3.27907
H          6.30511       -0.41145       -2.91689
