111
-148.55685771
P         -2.54470        1.97249        1.07540
P          0.16973        0.46293        0.46323
C         -1.42314        1.55086        2.43638
C         -0.21576        0.94742        2.15768
C         -3.39680        3.58915        1.36940
C         -2.78880        4.70193        0.54389
C         -1.76952        1.82532        3.74407
H         -2.72312        2.27856        3.95951
C         -0.89827        1.50173        4.76997
H         -1.16804        1.71577        5.79128
C          0.31462        0.90338        4.48724
H          0.99165        0.64917        5.28611
C          0.65473        0.62082        3.17667
H          1.58935        0.13716        2.94053
Pd        -1.32336        1.64981       -0.85627
Cl        -2.98511        2.64956       -1.98076
Cl        -0.01791        1.22878       -2.63421
C         -4.86414        3.26218        1.03661
C         -4.00842        0.84916        0.92626
H         -3.29393        5.65383        0.72332
H         -1.72829        4.83145        0.77258
H         -2.86894        4.48412       -0.52166
H         -5.04417        3.49102       -0.02292
H         -5.54226        3.92015        1.60123
H         -4.06802        0.56814       -0.13385
C         -5.18868        1.76428        1.30457
C         -3.85534       -0.37743        1.79931
H         -3.29094        3.80607        2.43985
H         -5.41658        1.62468        2.37024
H         -6.09833        1.45768        0.76621
H         -3.72633       -0.09459        2.84567
H         -4.73210       -1.02599        1.73526
H         -2.98107       -0.96286        1.50779
C         -1.28162       -3.80000       -0.23368
C         -1.04757       -3.34527        1.08939
C         -0.58806       -2.05138        1.26730
C         -0.42264       -1.20776        0.20075
C         -0.73529       -1.61342       -1.06880
C         -1.21394       -2.88732       -1.31718
O         -1.54643       -5.17416       -0.47597
C         -1.25295       -4.24229        2.31972
H         -0.34666       -1.68383        2.24888
H         -0.59153       -0.91071       -1.87064
C         -1.63689       -3.25551       -2.74765
C          4.59989        0.57499       -0.57336
C          4.06077       -0.53140        0.13571
C          2.70471       -0.52869        0.41742
C          1.91722        0.54751        0.10068
C          2.45792        1.67176       -0.46497
C          3.80498        1.73359       -0.78300
O          5.89756        0.48999       -1.14009
C          4.88995       -1.73294        0.62017
H          2.24116       -1.38563        0.87724
H          1.80549        2.50061       -0.68203
C          4.34784        3.05510       -1.35244
C         -2.41376       -5.22855        2.09692
C          0.04650       -5.00863        2.60983
C         -1.61337       -3.39625        3.56246
C         -2.76513       -4.30271       -2.74119
C         -2.18256       -2.01184       -3.48770
C         -0.41953       -3.79020       -3.51661
C         -0.38371       -5.94842       -0.74253
H         -2.19774       -5.91824        1.28469
H         -2.60139       -5.82173        2.99158
H         -3.32905       -4.69321        1.84643
H         -0.06383       -5.64720        3.48591
H          0.32891       -5.63769        1.76913
H          0.86794       -4.31715        2.79674
H         -1.87730       -4.03775        4.40294
H         -0.77863       -2.77567        3.88499
H         -2.46483       -2.74804        3.35780
H         -3.61619       -3.94546       -2.16228
H         -3.10841       -4.51538       -3.75330
H         -2.43415       -5.24054       -2.30235
H         -2.60662       -2.29015       -4.45209
H         -2.96534       -1.52643       -2.90533
H         -1.39938       -1.28096       -3.68283
H         -0.68724       -4.04799       -4.54094
H          0.37181       -3.04178       -3.55246
H         -0.01224       -4.67949       -3.04144
H         -0.45869       -6.39296       -1.73473
H          0.50956       -5.32461       -0.68987
H         -0.30733       -6.75484       -0.01333
C          5.89047       -0.05852       -2.44777
C          6.40304       -1.45834        0.57307
C          4.53327       -2.04094        2.09166
C          4.56168       -2.96242       -0.24344
C          5.88443        3.12359       -1.31380
C          3.86058        3.22207       -2.80154
C          3.82361        4.23523       -0.50460
H          6.96581       -2.28266        1.01052
H          6.74946       -1.33037       -0.44961
H          6.64596       -0.55030        1.12382
H          5.16065       -2.84089        2.48407
H          4.68237       -1.16011        2.71558
H          3.49766       -2.35912        2.19997
H          4.81087       -2.78756       -1.28825
H          5.12045       -3.83521        0.09344
H          3.50019       -3.20322       -0.19137
H          6.32917        2.38240       -1.97347
H          6.24214        4.10294       -1.63082
H          6.25213        2.93683       -0.30544
H          4.20709        4.16516       -3.22323
H          4.22663        2.41671       -3.43515
H          2.77211        3.21188       -2.84978
H          4.25667        5.17707       -0.84060
H          4.08486        4.10059        0.54465
H          2.74166        4.33449       -0.57305
H          5.47975       -1.06656       -2.42862
H          5.27947        0.55539       -3.10730
H          6.91116       -0.09217       -2.82932
