171
-217.84667814
P         -1.58945        0.38140       -0.34396
P          1.57531       -0.44865       -0.24992
C         -0.84142        1.30956       -1.68586
C          0.86664       -1.41714       -1.59000
C         -0.05971        0.66042       -2.63389
C          0.56463        1.42690       -3.63696
C          0.35719        2.79603       -3.66942
C         -0.44098        3.41708       -2.73200
C         -1.03422        2.66812       -1.73469
C          1.04177       -2.77936       -1.55645
C          0.45672       -3.58088       -2.51648
C         -0.32122       -3.00824       -3.50000
C         -0.51277       -1.63763       -3.55174
C          0.10818       -0.81765       -2.58976
Cl         1.57318        0.19444        2.88554
Cl        -1.67993       -0.36467        2.89567
C         -1.37889       -1.06466       -4.61870
C          1.42207        0.78982       -4.67382
H         -0.60007        4.48211       -2.77586
H         -1.65432        3.14431       -0.99251
H          1.63795       -3.22024       -0.77420
H          0.60188       -4.64851       -2.49082
H          0.82984        3.37734       -4.44310
H         -0.79618       -3.62949       -4.24059
C         -3.97249       -3.19689       -1.74122
C         -2.98058       -3.38617       -0.78741
C         -2.25699       -2.27459       -0.37457
C         -2.50721       -1.04200       -0.92377
C         -3.47638       -0.87441       -1.88234
C         -4.23829       -1.95669       -2.30766
H         -4.57008       -4.03898       -2.03777
H         -1.49661       -2.35821        0.38232
H         -3.63790        0.11127       -2.28480
C         -4.29752        2.98054        2.21162
C         -4.86581        1.98714        1.42417
C         -4.01801        1.21688        0.63889
C         -2.66538        1.45097        0.63051
C         -2.12312        2.44678        1.40518
C         -2.92932        3.22454        2.22551
H         -4.94300        3.56593        2.83895
H         -4.40649        0.41331        0.03980
H         -1.05728        2.60051        1.39261
C          4.52283       -2.89927        2.18316
C          3.17061       -3.20813        2.27047
C          2.28082       -2.46678        1.50232
C          2.73493       -1.45475        0.69306
C          4.07394       -1.16058        0.62622
C          4.99960       -1.88049        1.36745
H          5.21514       -3.46201        2.78062
H          1.22203       -2.65430        1.55052
H          4.40231       -0.34762        0.00321
C          3.79596        3.29566       -1.47084
C          2.83459        3.38366       -0.47119
C          2.13262        2.23033       -0.14739
C          2.40084        1.04701       -0.78915
C          3.35873        0.97462       -1.77061
C          4.08160        2.10597       -2.12987
H          4.35460        4.17260       -1.73790
H          1.37864        2.24663        0.62002
H          3.54619        0.02353       -2.23950
Pd        -0.06688       -0.06051        1.37085
C         -2.52305       -5.79715       -1.32912
C         -2.74347       -4.78054       -0.19278
C         -3.97300       -5.18752        0.63790
C         -1.50212       -4.79994        0.71929
H         -1.68517       -5.49653       -1.95696
H         -2.30633       -6.78751       -0.92907
H         -3.40324       -5.88291       -1.96479
H         -3.83427       -6.17175        1.08489
H         -4.14751       -4.47230        1.44155
H         -4.87033       -5.22229        0.02086
H         -1.31926       -5.80370        1.10258
H         -0.61361       -4.48533        0.17253
H         -1.63360       -4.14008        1.57656
C         -5.42321       -0.39163       -3.92576
C         -5.38957       -1.80521       -3.31249
C         -6.72201       -2.05730       -2.58403
C         -5.22902       -2.82677       -4.45496
H         -4.48468       -0.16006       -4.42875
H         -6.22304       -0.30810       -4.66142
H         -5.60127        0.36491       -3.16187
H         -6.75682       -3.06256       -2.16521
H         -6.85363       -1.35060       -1.76548
H         -7.56645       -1.94752       -3.26421
H         -5.26688       -3.85007       -4.08411
H         -6.02486       -2.71371       -5.19100
H         -4.27786       -2.69204       -4.96767
C         -7.12006        3.04147        1.09310
C         -6.38095        1.74351        1.46797
C         -6.78039        1.30775        2.88918
C         -6.80671        0.64031        0.47883
H         -6.82525        3.37834        0.09940
H         -8.19919        2.88875        1.09125
H         -6.89950        3.84253        1.79747
H         -7.84992        1.10745        2.95044
H         -6.24905        0.40041        3.17590
H         -6.54216        2.07928        3.62047
H         -7.88601        0.49104        0.50594
H         -6.53520        0.90632       -0.54259
H         -6.33728       -0.31182        0.72571
C         -1.55798        5.32221        2.27480
C         -2.28115        4.27471        3.13855
C         -1.26743        3.57617        4.06573
C         -3.32500        4.99631        4.01206
H         -1.09477        6.08948        2.89491
H         -0.77560        4.86018        1.67664
H         -2.25541        5.81066        1.59454
H         -1.75981        2.81164        4.66616
H         -0.47639        3.08999        3.49642
H         -0.79965        4.29043        4.74285
H         -2.84599        5.73226        4.65777
H         -4.05478        5.52293        3.39737
H         -3.85486        4.29130        4.65234
C          3.06227       -3.89916        4.67460
C          2.69886       -4.30539        3.23485
C          3.38729       -5.63515        2.87627
C          1.17418       -4.51135        3.15729
H          2.72124       -4.64745        5.38977
H          4.13931       -3.78831        4.79452
H          2.59757       -2.94764        4.93258
H          3.16073       -5.92031        1.84901
H          4.46978       -5.56129        2.97245
H          3.04949       -6.43783        3.53158
H          0.85312       -5.29660        3.84148
H          0.63933       -3.60077        3.42691
H          0.87548       -4.80624        2.15238
C          7.35939       -2.41498        2.15936
C          6.48558       -1.50700        1.27335
C          6.66904       -0.04829        1.73315
C          6.95355       -1.65062       -0.18694
H          7.26643       -3.45943        1.86220
H          8.41088       -2.14043        2.07575
H          7.07846       -2.32691        3.20866
H          6.31714        0.07908        2.75665
H          7.71840        0.24368        1.69689
H          6.10980        0.64015        1.10043
H          6.80920       -2.67185       -0.53897
H          6.39650       -0.98770       -0.84761
H          8.01101       -1.40544       -0.28418
C          3.64820        5.73287        0.06622
C          2.51397        4.70416        0.24390
C          2.32948        4.45657        1.75523
C          1.21928        5.28227       -0.34821
H          3.44578        6.63488        0.64369
H          4.60003        5.32518        0.40643
H          3.75308        6.03256       -0.97603
H          3.21385        3.98052        2.17808
H          2.16468        5.39406        2.28604
H          1.47434        3.81411        1.95699
H          0.93568        6.20742        0.15318
H          1.34441        5.49656       -1.40933
H          0.39879        4.57350       -0.24697
C          4.97555        3.12155       -4.25019
C          5.21832        2.05957       -3.16101
C          5.31830        0.67878       -3.83867
C          6.55097        2.34767       -2.44531
H          4.97654        4.12773       -3.83324
H          5.75186        3.07985       -5.01403
H          4.01460        2.96395       -4.73810
H          5.54040       -0.10158       -3.11141
H          4.39022        0.42129       -4.34712
H          6.11553        0.66994       -4.58182
H          6.54500        3.33444       -1.98352
H          6.73330        1.61343       -1.66075
H          7.38622        2.30988       -3.14438
H         -0.88056       -1.10220       -5.58837
H          2.27159        1.42633       -4.92186
H         -1.63896       -0.02608       -4.41043
H         -2.31027       -1.62485       -4.69984
H          0.85899        0.61553       -5.59157
H          1.81510       -0.16822       -4.33074
