111
-148.55075484
P         -2.18364        2.18262        1.32824
P          0.13225        0.15658        0.59775
C         -1.14755        1.48893        2.64383
C         -0.13546        0.61373        2.31706
C         -2.32983        4.01855        1.52101
C         -1.74196        4.74431        0.33076
C         -1.35019        1.84374        3.96220
H         -2.12925        2.54548        4.21111
C         -0.54638        1.30469        4.95194
H         -0.70569        1.57913        5.98195
C          0.46051        0.41786        4.62142
H          1.08596       -0.00194        5.39196
C          0.66813        0.07233        3.29789
H          1.45191       -0.61510        3.02030
Pd        -1.37576        1.35437       -0.68065
Cl        -3.02025        2.52776       -1.65959
Cl        -0.60762        0.37986       -2.54659
C         -3.84500        4.24346        1.71655
C         -3.96967        1.70341        1.41095
H         -2.28564        4.49324       -0.58091
H         -1.79406        5.82844        0.45609
H         -0.69543        4.47130        0.17641
H         -4.14260        5.17685        1.21740
H         -4.06612        4.39788        2.78278
H         -4.14722        1.00944        0.57784
C         -4.68749        3.04939        1.18498
C         -4.31079        1.04912        2.73246
H         -1.77322        4.27609        2.43255
H         -5.67636        3.02587        1.66609
H         -4.88139        3.19112        0.11150
H         -4.18620        1.75473        3.55535
H         -5.34645        0.70153        2.75329
H         -3.66092        0.19507        2.93171
C         -1.23495       -4.11081       -0.22311
C         -1.90235       -3.32731        0.75323
C         -1.43608       -2.04574        1.00020
C         -0.39407       -1.52422        0.27804
C          0.17880       -2.23647       -0.74236
C         -0.23811       -3.52186       -1.04143
O         -1.55221       -5.48802       -0.36789
C         -3.10710       -3.85839        1.54609
H         -1.88195       -1.43231        1.76392
H          0.95365       -1.76282       -1.31927
C          0.39959       -4.25408       -2.23255
C          4.33058        1.01141       -0.94446
C          4.05253       -0.23821       -0.33387
C          2.76872       -0.47080        0.13080
C          1.80246        0.49817        0.05311
C          2.09553        1.74403       -0.43673
C          3.36163        2.04658       -0.91000
O          5.56578        1.21324       -1.61631
C          5.10565       -1.35113       -0.21519
H          2.49927       -1.42569        0.54767
H          1.31037        2.48023       -0.45839
C          3.64677        3.47051       -1.41279
C         -4.02083       -2.69756        1.99828
C         -3.96645       -4.79570        0.67824
C         -2.60987       -4.59898        2.79670
C          0.86069       -3.24529       -3.31005
C          1.62441       -5.04480       -1.74824
C         -0.61269       -5.19797       -2.90620
C         -0.76143       -6.35792        0.43206
H         -3.53842       -2.08737        2.75985
H         -4.28469       -2.05830        1.15600
H         -4.94519       -3.07785        2.43252
H         -4.28758       -4.28872       -0.23108
H         -3.41260       -5.68471        0.38657
H         -4.85553       -5.12315        1.21652
H         -3.44604       -4.97380        3.38647
H         -1.98110       -5.44486        2.53122
H         -2.02149       -3.93439        3.42900
H          1.18505       -3.76343       -4.21214
H          0.04845       -2.57237       -3.58381
H          1.70210       -2.64493       -2.96732
H          1.34529       -5.79420       -1.01194
H          2.11354       -5.55437       -2.57802
H          2.35212       -4.38068       -1.28301
H         -0.18091       -5.67151       -3.78752
H         -0.92980       -5.98806       -2.23015
H         -1.50058       -4.64822       -3.21672
H         -0.21599       -7.05005       -0.20907
H         -0.05558       -5.78531        1.03503
H         -1.40949       -6.94212        1.08514
C          5.53655        0.88210       -2.99916
C          6.51112       -0.76096       -0.00037
C          4.80798       -2.26147        0.99792
C          5.08048       -2.21275       -1.48700
C          3.29583        3.56024       -2.90587
C          2.78902        4.50232       -0.64474
C          5.11961        3.85654       -1.18591
H          7.24928       -1.54934        0.14471
H          6.82732       -0.16799       -0.85501
H          6.52629       -0.11605        0.87759
H          5.62130       -2.96869        1.15918
H          4.69282       -1.67146        1.90682
H          3.90150       -2.84671        0.84963
H          5.31892       -1.62337       -2.36862
H          5.80181       -3.02693       -1.42184
H          4.09300       -2.64739       -1.63765
H          3.47490        4.56420       -3.28974
H          3.88930        2.86463       -3.49391
H          2.24587        3.31815       -3.06922
H          1.73163        4.40699       -0.88656
H          2.90827        4.38171        0.43168
H          3.08420        5.51920       -0.90245
H          5.38440        3.75622       -0.13387
H          5.30512        4.88767       -1.48565
H          5.79020        3.22210       -1.75967
H          5.76467        1.76670       -3.59335
H          6.29498        0.12826       -3.20975
H          4.55400        0.49922       -3.27811
