105
-153.06023310
Cl         2.89036        2.30910        0.19708
Pd         0.85751        1.68075       -0.55313
P         -1.32178        1.25504       -1.27710
N         -1.41545       -0.37079       -0.71564
C         -0.44547       -1.25861       -1.16854
C         -0.09366       -2.32795       -0.30617
C          1.01286       -3.13570       -0.62498
C          1.42923       -4.23822        0.31573
C          2.20351       -5.35973       -0.38949
C          3.38376       -4.77338       -1.17088
C          2.91306       -3.74606       -2.21648
C          1.73584       -2.89584       -1.79749
C          1.34994       -1.85831       -2.64126
C          0.28469       -1.05145       -2.33822
H          0.01553       -0.23816       -2.98633
H          1.91064       -1.68740       -3.54461
H          3.74211       -3.08052       -2.48881
H          4.07238       -4.28862       -0.46860
H          2.54292       -6.11861        0.32964
H          2.05763       -3.80324        1.09861
C         -1.01537       -2.66779        0.81181
C         -1.18334       -1.84108        1.95823
C         -2.04253       -2.27845        2.96637
C         -2.74636       -3.44877        2.85151
C         -2.66210       -4.22787        1.70574
C         -3.52170       -5.46724        1.62502
C         -3.26863       -6.34107        0.38551
C         -3.02010       -5.47592       -0.85333
C         -1.79508       -4.57501       -0.64053
C         -1.81681       -3.82248        0.67073
H         -0.88649       -5.18390       -0.69289
H         -3.90176       -4.85104       -1.04332
H         -4.10602       -7.03254        0.21576
H         -4.57359       -5.15778        1.64592
H         -3.40401       -3.76046        3.64548
H         -2.16052       -1.66742        3.84463
N         -0.61252       -0.58174        2.13325
P          0.74168        0.26075        1.35432
C          2.17233       -0.82016        1.39364
C          3.13748       -0.79634        0.41513
C          4.25475       -1.60209        0.53163
C          4.41668       -2.43295        1.63253
C          3.43627       -2.43737        2.61475
C          2.31388       -1.63745        2.49022
H          1.54439       -1.64285        3.24626
H          3.55467       -3.07455        3.47444
C          5.62457       -3.29214        1.77496
H          5.01328       -1.58332       -0.23203
H          3.02266       -0.14017       -0.43163
C          1.10539        1.60920        2.49969
C          2.20457        1.55483        3.32380
C          2.47694        2.60210        4.18428
C          1.65286        3.71832        4.22182
C          0.54338        3.75343        3.38926
C          0.27523        2.70384        2.53071
H         -0.57826        2.74239        1.87707
H         -0.10856        4.60994        3.41456
C          1.93145        4.84011        5.16065
H          3.33716        2.56008        4.83035
H          2.85700        0.69884        3.28546
H         -0.71585       -0.16213        3.04959
H         -1.36516       -0.32028        0.29975
C         -1.87190        1.27201       -2.98251
C         -1.26586        2.06568       -3.92585
C         -1.71646        2.05014       -5.23168
C         -2.77549        1.23236       -5.60271
C         -3.38083        0.44268       -4.63397
C         -2.92657        0.46092       -3.32684
H         -3.38226       -0.15952       -2.57081
H         -4.20954       -0.18710       -4.90899
C         -3.27883        1.23285       -7.00429
H         -1.24713        2.67463       -5.97256
H         -0.43823        2.68925       -3.63359
C         -2.34843        2.31783       -0.26828
C         -2.84947        3.48571       -0.79157
C         -3.60961        4.32242        0.00553
C         -3.87213        3.99238        1.32866
C         -3.34461        2.81486        1.84083
C         -2.58599        1.97929        1.04322
H         -2.14207        1.08868        1.45711
H         -3.52267        2.56190        2.87218
C         -4.66113        4.90898        2.19736
H         -3.99948        5.24236       -0.39550
H         -2.63620        3.74119       -1.81745
Cl         1.02037        3.29056       -2.11763
H          2.64345       -4.26703       -3.14306
H          1.53417       -5.88489       -1.08211
H          3.96902       -5.57305       -1.64624
H          0.55785       -4.63948        0.84544
H         -2.90002       -6.09969       -1.75044
H         -1.71210       -3.85269       -1.46263
H         -3.37314       -6.05576        2.53943
H         -2.39285       -6.97860        0.56121
H          6.27075       -2.92234        2.57221
H          5.34593       -4.31907        2.01606
H          6.20890       -3.31380        0.85406
H          1.38804        4.70600        6.09697
H          2.99505        4.90369        5.39452
H          1.63037        5.79612        4.73000
H         -4.05358        1.98918       -7.13717
H         -2.47556        1.44596       -7.71098
H         -3.70458        0.26431       -7.27023
H         -5.21279        4.35341        2.95703
H         -4.00681        5.61750        2.70711
H         -5.38522        5.47909        1.61366
