59
-75.80808315
Cl         1.74726        0.31717        2.26474
P          1.58026       -0.08477       -0.88296
P         -1.60453       -0.04412       -0.79444
C          0.57274        0.20957       -2.40261
H          0.33688        1.27374       -2.47712
H          1.16880       -0.05646       -3.28136
C         -0.68142       -0.60641       -2.28972
H         -0.44441       -1.66723       -2.17205
H         -1.32932       -0.50489       -3.16610
C          2.63830       -1.58336       -1.19225
H          2.57505       -1.72540       -2.27988
C          2.92218        1.17405       -0.62721
H          2.94370        1.37674        0.45029
C         -3.01701       -1.17189       -0.38702
H         -3.19635       -1.02261        0.68534
C         -2.62405        1.43905       -1.24487
H         -2.05844        2.03391       -1.97248
C          4.05527       -1.10431       -0.83533
H          4.26905       -1.34402        0.21342
H          4.80574       -1.65602       -1.42162
C          4.19952        0.42609       -1.04655
H          4.39920        0.63316       -2.10687
H          5.07046        0.81876       -0.50005
C         -4.19196       -0.60302       -1.21420
H         -4.48331       -1.33816       -1.97751
H         -5.07772       -0.49414       -0.57113
C         -3.85187        0.76154       -1.88961
H         -4.71746        1.43960       -1.84926
H         -3.65717        0.60188       -2.96135
C          2.18020       -2.86291       -0.49150
H          2.80549       -3.69764       -0.83764
H          1.16718       -3.10654       -0.83697
C          2.68352        2.47294       -1.38800
H          3.59987        3.07891       -1.35906
H          2.52687        2.24005       -2.44915
C         -2.70896       -2.63951       -0.65393
H         -3.63325       -3.22562       -0.55420
H         -2.40747       -2.75551       -1.70278
C         -2.99200        2.28809       -0.02883
H         -3.83651        2.93988       -0.29304
H         -3.37648        1.62444        0.75679
C          2.20710       -2.81463        1.02876
H          1.79658       -3.72504        1.47194
H          1.62486       -1.97916        1.41383
H          3.22081       -2.70213        1.41519
C          1.51590        3.27472       -0.83635
H          1.34334        4.19360       -1.40126
H          1.68659        3.55482        0.20494
H          0.59328        2.69517       -0.86168
C         -1.64174       -3.19355        0.27622
H         -0.71923       -2.61826        0.20135
H         -1.40126       -4.23588        0.05507
H         -1.96143       -3.14235        1.31879
C         -1.84916        3.13456        0.50841
H         -2.15831        3.74235        1.36181
H         -1.01558        2.51740        0.84177
H         -1.46833        3.81444       -0.25585
Cl        -1.57993        0.13176        2.40675
Pd         0.02672        0.06877        0.84760
