111
-148.55403565
P         -2.24681        2.24368        0.88838
P          0.06003        0.09974        0.48700
C         -1.30080        1.66300        2.31678
C         -0.30957        0.72399        2.13739
C         -2.34556        4.08960        0.85666
C         -1.46047        4.65557       -0.23272
C         -1.56685        2.15378        3.57866
H         -2.34370        2.88949        3.71032
C         -0.83633        1.69667        4.66209
H         -1.04302        2.07801        5.64874
C          0.15616        0.75240        4.48024
H          0.72499        0.39672        5.32349
C          0.42087        0.26436        3.21279
H          1.19455       -0.47013        3.05137
Pd        -1.34078        1.24265       -0.97666
Cl        -3.00161        2.17314       -2.15774
Cl        -0.31488        0.05753       -2.58418
C         -3.85037        4.35308        0.66167
C         -4.04690        1.81994        0.98144
H         -1.76316        4.27773       -1.21117
H         -1.51672        5.74614       -0.26752
H         -0.41552        4.37348       -0.08169
H         -4.05032        4.47132       -0.41224
H         -4.13526        5.31114        1.12247
H         -4.31555        1.43309       -0.01060
C         -4.71428        3.18713        1.22112
C         -4.32511        0.78606        2.05222
H         -2.01805        4.43585        1.84557
H         -4.86061        3.32535        2.30116
H         -5.72382        3.20170        0.78301
H         -5.38505        0.52394        2.08861
H         -3.75474       -0.12917        1.87953
H         -4.04483        1.16216        3.03741
C         -1.17912       -4.27284        0.19645
C         -2.12922       -3.23683        0.01026
C         -1.70182       -1.92589        0.13714
C         -0.38169       -1.62879        0.35445
C          0.55715       -2.62276        0.44547
C          0.19726       -3.95547        0.32874
O         -1.61049       -5.62348        0.28196
C         -3.60565       -3.51106       -0.31623
H         -2.40213       -1.11153        0.06636
H          1.58138       -2.34259        0.61799
C          1.29322       -5.03280        0.36160
C          4.29711        1.23787       -0.74532
C          3.56271        2.05958        0.14733
C          2.29325        1.64977        0.52064
C          1.73020        0.51642       -0.00733
C          2.39085       -0.21574       -0.95837
C          3.66345        0.13629       -1.37516
O          5.67140        1.49967       -0.99122
C          4.12240        3.36995        0.72311
H          1.72017        2.21506        1.23558
H          1.88473       -1.06090       -1.39032
C          4.33943       -0.67247       -2.49366
C         -4.20683       -2.34796       -1.13953
C         -3.75476       -4.78600       -1.16594
C         -4.40120       -3.64806        0.99049
C          1.53095       -5.47344        1.81368
C          0.90613       -6.24511       -0.50504
C          2.61832       -4.47967       -0.20993
C         -1.92614       -6.05003        1.60124
H         -5.20736       -2.59888       -1.49076
H         -4.29594       -1.43794       -0.54822
H         -3.59054       -2.13088       -2.01163
H         -3.42242       -5.66654       -0.62171
H         -4.79382       -4.94756       -1.45172
H         -3.16001       -4.71157       -2.07574
H         -5.45655       -3.82857        0.78775
H         -4.02945       -4.47254        1.59394
H         -4.32267       -2.73941        1.58678
H          1.83783       -4.62702        2.42768
H          0.62722       -5.88956        2.25238
H          2.31189       -6.23144        1.86884
H          1.71223       -6.97769       -0.53685
H          0.02285       -6.74554       -0.11631
H          0.69068       -5.93289       -1.52637
H          3.04808       -3.71532        0.43568
H          3.36030       -5.27225       -0.30432
H          2.46189       -4.04892       -1.19843
H         -2.96267       -6.38472        1.63868
H         -1.28803       -6.88947        1.87674
H         -1.78074       -5.23412        2.31035
C          6.55712        0.85142       -0.08731
C          4.84179        3.07555        2.04802
C          5.08760        4.04585       -0.26770
C          2.98079        4.37696        0.99383
C          3.28215       -1.29968       -3.43097
C          5.23076        0.23293       -3.36304
C          5.17682       -1.80185       -1.87553
H          5.24524        3.98873        2.48479
H          4.15514        2.63136        2.76837
H          5.66460        2.37941        1.90364
H          4.59592        4.21828       -1.22451
H          5.43277        5.00618        0.11453
H          5.96492        3.43062       -0.45042
H          2.33411        4.04704        1.80554
H          3.38217        5.34869        1.28055
H          2.36941        4.51751        0.10280
H          2.71074       -2.07924       -2.92958
H          2.58606       -0.54287       -3.79177
H          3.75666       -1.75881       -4.29784
H          5.66303       -0.32386       -4.19402
H          4.65244        1.06031       -3.77287
H          6.05113        0.65278       -2.78589
H          5.96146       -1.40628       -1.23554
H          5.64799       -2.40709       -2.64958
H          4.55275       -2.45632       -1.26840
H          5.99992        0.21616        0.60237
H          7.26885        0.24523       -0.64759
H          7.11664        1.59708        0.47699
