59
-75.79844276
Cl         1.35607        0.60492        2.39286
P          1.47425        0.03443       -0.76516
P         -1.73510       -0.19548       -0.81642
C          0.49400        0.42569       -2.28507
H          0.20951        1.47969       -2.25306
H          1.14101        0.28942       -3.15716
C         -0.72572       -0.45012       -2.34111
H         -0.44064       -1.50326       -2.39398
H         -1.35210       -0.23787       -3.21298
C          2.42971       -1.51777       -1.07751
H          1.97532       -1.96583       -1.97171
C          2.87044        1.22222       -0.49308
H          2.77156        1.57844        0.54013
C         -3.01630       -1.50535       -0.54929
H         -3.06103       -1.66452        0.53522
C         -2.83686        1.28686       -1.00712
H         -2.71179        1.62799       -2.04185
C          3.84109       -0.98679       -1.39409
H          4.59066       -1.74935       -1.13649
H          3.94269       -0.83093       -2.47869
C          4.13556        0.35063       -0.65716
H          4.90450        0.91646       -1.20096
H          4.57760        0.14358        0.32767
C         -4.30306       -0.82018       -1.03786
H         -4.42434       -1.01843       -2.11200
H         -5.18386       -1.26829       -0.55253
C         -4.25130        0.71163       -0.79278
H         -4.56258        0.92175        0.23977
H         -4.97915        1.23578       -1.43044
C          2.36138       -2.50615        0.08789
H          2.77030       -3.47357       -0.23638
H          1.30737       -2.70274        0.32312
C          2.79951        2.40996       -1.44662
H          2.93085        2.04675       -2.47441
H          1.78769        2.83561       -1.41528
C         -2.69888       -2.81943       -1.25265
H         -3.58257       -3.47134       -1.21062
H         -2.53850       -2.62210       -2.32042
C         -2.49672        2.41509       -0.03593
H         -3.31942        3.14377       -0.03969
H         -2.47875        2.00821        0.98354
C          3.08309       -2.05120        1.34637
H          4.15996       -1.97690        1.18772
H          2.92745       -2.74068        2.17935
H          2.73629       -1.06976        1.66767
C          3.81761        3.49724       -1.13115
H          3.73112        4.34785       -1.81118
H          4.84085        3.12590       -1.20442
H          3.68599        3.87525       -0.11550
C         -1.49825       -3.53384       -0.65351
H         -0.60703       -2.90826       -0.69594
H         -1.27097       -4.46650       -1.17480
H         -1.66691       -3.77586        0.39757
C         -1.18669        3.12253       -0.34599
H         -1.18853        3.53313       -1.35743
H         -0.99509        3.94803        0.34333
H         -0.33819        2.44262       -0.27422
Cl        -1.86781       -0.19023        2.32407
Pd        -0.16920       -0.00726        0.86940
