111
-148.55324155
P         -2.28945        2.35443        0.66415
P          0.03040        0.20626        0.52015
C         -1.35080        1.95017        2.15650
C         -0.36285        0.99227        2.09556
C         -2.25486        4.16938        0.31915
C         -1.36674        4.46871       -0.86908
C         -1.62864        2.58215        3.35123
H         -2.39352        3.34107        3.38585
C         -0.92371        2.23691        4.49145
H         -1.14007        2.72793        5.42616
C          0.05166        1.25970        4.43375
H          0.59558        0.98576        5.32275
C          0.33208        0.63412        3.23204
H          1.08548       -0.13593        3.17237
Pd        -1.58337        0.91582       -0.99325
Cl        -3.12213        1.85793       -2.32744
Cl        -0.86853       -0.61104       -2.47691
C         -3.74152        4.51493        0.11269
C         -4.11573        2.08935        0.83873
H         -1.34470        5.53800       -1.09252
H         -0.34069        4.13661       -0.69161
H         -1.72782        3.95201       -1.76037
H         -3.96583        4.47495       -0.96215
H         -3.94020        5.55367        0.41740
H         -4.43172        1.58093       -0.08203
C         -4.67174        3.52498        0.86992
C         -4.45973        1.25165        2.05226
H         -1.86937        4.64944        1.22822
H         -4.77213        3.84353        1.91653
H         -5.69109        3.54922        0.45556
H         -5.53657        1.08482        2.12923
H         -3.96809        0.27737        2.01524
H         -4.13766        1.74423        2.97066
C         -0.80263       -4.26111        0.75300
C         -1.85810       -3.32138        0.89636
C         -1.54226       -1.97312        0.86247
C         -0.26300       -1.55337        0.60773
C          0.73490       -2.45369        0.34196
C          0.49055       -3.81680        0.36754
O         -1.02194       -5.62763        1.06452
C         -3.33967       -3.70661        1.04457
H         -2.30250       -1.22820        1.02873
H          1.71584       -2.07759        0.10804
C          1.62890       -4.76384       -0.04848
C          4.19430        1.25428       -1.02917
C          3.25442        0.61342       -1.87499
C          1.99843        0.33782       -1.36452
C          1.67857        0.61376       -0.06148
C          2.61463        1.14918        0.78452
C          3.89423        1.44397        0.34409
O          5.42093        1.73135       -1.56365
C          3.56363        0.25088       -3.33618
H          1.23233       -0.08763       -1.98761
H          2.32883        1.34567        1.80178
C          4.92526        1.98021        1.35046
C         -3.59857       -5.18116        0.69034
C         -3.79803       -3.43569        2.48680
C         -4.18780       -2.85377        0.07400
C          2.31816       -4.21488       -1.31770
C          2.66358       -4.85137        1.08496
C          1.11590       -6.17379       -0.38944
C         -0.80158       -5.92217        2.43356
H         -4.66427       -5.40817        0.70661
H         -3.21674       -5.40964       -0.30409
H         -3.10931       -5.84795        1.39642
H         -4.85424       -3.67337        2.61076
H         -3.23353       -4.03600        3.19784
H         -3.65660       -2.38804        2.75049
H         -3.82590       -2.96159       -0.94811
H         -5.23244       -3.16289        0.09583
H         -4.15806       -1.79619        0.33009
H          3.05969       -4.91942       -1.69347
H          1.58754       -4.04182       -2.10744
H          2.83496       -3.27697       -1.12201
H          3.49646       -5.49488        0.80267
H          3.06519       -3.86639        1.32132
H          2.22040       -5.25612        1.99263
H          0.70337       -6.66557        0.48847
H          0.33195       -6.12482       -1.14438
H          1.91916       -6.80267       -0.77258
H         -1.00765       -6.97777        2.61177
H          0.23189       -5.70768        2.70008
H         -1.45776       -5.31652        3.05663
C          5.36901        3.07262       -2.03372
C          2.72780       -0.96821       -3.78895
C          3.21224        1.44229       -4.24006
C          5.04447       -0.13196       -3.50917
C          4.63893        1.43516        2.76868
C          6.34978        1.52979        0.97863
C          4.84714        3.51383        1.39190
H          3.03417       -1.30040       -4.78052
H          2.85775       -1.80351       -3.10244
H          1.66632       -0.73214       -3.84587
H          3.41085        1.21072       -5.28614
H          2.15717        1.69836       -4.14541
H          3.79134        2.32343       -3.97538
H          5.25083       -0.44736       -4.53162
H          5.69997        0.70581       -3.28491
H          5.30909       -0.95124       -2.84146
H          4.56004        0.34834        2.75773
H          5.44044        1.70536        3.45585
H          3.71634        1.84272        3.17941
H          6.40215        0.44392        0.90695
H          6.66001        1.94201        0.02184
H          7.07177        1.85566        1.72698
H          5.06355        3.94688        0.41843
H          5.56037        3.92182        2.10767
H          3.84980        3.84070        1.68534
H          6.09285        3.67941       -1.49002
H          5.63079        3.09942       -3.09135
H          4.36943        3.48650       -1.89519
