111
-148.55531203
P         -1.70010        2.69545        0.99908
P         -0.43526       -0.16359        0.52174
C         -1.23113        1.66652        2.41940
C         -0.75075        0.39108        2.20890
C         -0.64247        4.20707        0.88799
C          0.22424        4.15861       -0.35279
C         -1.32872        2.16049        3.70444
H         -1.67048        3.17053        3.86115
C         -0.96668        1.36469        4.77769
H         -1.04616        1.74864        5.78163
C         -0.49808        0.08233        4.56405
H         -0.21068       -0.53454        5.39954
C         -0.37977       -0.40264        3.27386
H          0.01751       -1.38778        3.08629
Pd        -1.68638        1.25792       -0.80963
Cl        -2.72905        2.88756       -1.94053
Cl        -1.47661       -0.30689       -2.41013
C         -1.66585        5.36060        0.89963
C         -3.37035        3.47583        1.17248
H         -0.39334        4.09032       -1.25058
H          0.84364        5.05399       -0.44378
H          0.88455        3.28858       -0.34629
H         -1.83524        5.68951       -0.13483
H         -1.25041        6.23589        1.42147
H         -3.82364        3.43346        0.17330
C         -3.02253        4.93222        1.52920
C         -4.24812        2.76012        2.17731
H         -0.03104        4.22010        1.79964
H         -2.96909        5.02760        2.62243
H         -3.83311        5.60697        1.21385
H         -4.37947        1.70917        1.90963
H         -3.81002        2.79062        3.17529
H         -5.23698        3.21989        2.24068
C         -0.61298       -4.67720       -0.05014
C         -1.77686       -3.89763       -0.27449
C         -1.70876       -2.53290       -0.04539
C         -0.52750       -1.93654        0.30866
C          0.62479       -2.66996        0.42347
C          0.62542       -4.03881        0.21391
O         -0.69250       -6.09530       -0.06161
C         -3.09841       -4.50937       -0.76606
H         -2.57882       -1.90936       -0.15840
H          1.53444       -2.15038        0.67192
C          1.95616       -4.80466        0.27978
C          3.69781        1.27121       -0.74569
C          3.20795        1.60253        0.54623
C          1.95802        1.13240        0.91212
C          1.17948        0.43425        0.02647
C          1.59023        0.23529       -1.26438
C          2.82923        0.67318       -1.69719
O          5.06834        1.46184       -1.05794
C          3.98365        2.45605        1.56367
H          1.58190        1.30192        1.90591
H          0.91378       -0.25784       -1.94125
C          3.16755        0.50112       -3.18699
C         -3.89241       -3.48311       -1.60675
C         -2.84137       -5.72641       -1.67346
C         -3.95154       -4.92119        0.44277
C          2.19955       -5.27831        1.72042
C          1.94967       -6.00795       -0.68043
C          3.13124       -3.89440       -0.14739
C         -0.99463       -6.66893        1.20380
H         -4.75999       -3.95100       -2.07134
H         -4.26182       -2.66072       -0.99614
H         -3.27054       -3.06830       -2.39971
H         -2.35551       -6.53202       -1.12860
H         -3.77431       -6.11813       -2.07794
H         -2.19778       -5.45229       -2.50872
H         -4.90160       -5.34825        0.12264
H         -3.43906       -5.66122        1.05282
H         -4.16444       -4.05986        1.07548
H          2.23536       -4.43027        2.40392
H          1.40529       -5.94067        2.05650
H          3.14351       -5.81685        1.80030
H          2.91533       -6.51289       -0.68293
H          1.19718       -6.73891       -0.39491
H          1.73265       -5.68509       -1.69812
H          4.05471       -4.46721       -0.22897
H          2.93470       -3.43714       -1.11679
H          3.31139       -3.10035        0.57581
H         -1.10923       -5.88915        1.95779
H         -1.91705       -7.24506        1.13303
H         -0.19261       -7.34523        1.49903
C          5.86355        0.33058       -0.74432
C          4.51403        1.55164        2.68807
C          5.15507        3.21461        0.91597
C          3.04265        3.51847        2.17372
C          3.42096       -0.98658       -3.48261
C          1.97695        0.99232       -4.04088
C          4.39521        1.32638       -3.60891
H          5.19490        0.79747        2.29817
H          5.05121        2.13450        3.43585
H          3.69647        1.03436        3.18939
H          5.63203        3.88526        1.63031
H          5.91535        2.52817        0.55079
H          4.80773        3.80844        0.07116
H          3.58547        4.16991        2.85810
H          2.60996        4.14212        1.39258
H          2.22796        3.06550        2.73612
H          4.26211       -1.36451       -2.90431
H          2.54770       -1.58770       -3.23092
H          3.64202       -1.14185       -4.53822
H          1.72209        2.02136       -3.78908
H          2.21890        0.95564       -5.10264
H          1.08922        0.38052       -3.89019
H          4.55899        1.26527       -4.68454
H          5.29757        0.96956       -3.11815
H          4.26296        2.37471       -3.34357
H          6.89580        0.52444       -1.03650
H          5.82413        0.13114        0.32527
H          5.49590       -0.54470       -1.27777
