171
-217.84015790
P         -1.64192        0.52079        0.07840
P          1.54698       -0.39415       -0.28614
C         -0.78415        1.62114       -1.06952
C          0.74708       -1.08627       -1.73518
C         -0.12572        1.18761       -2.21540
C          0.54057        2.13830       -3.01300
C          0.51344        3.47336       -2.64590
C         -0.13479        3.88252       -1.50098
C         -0.77379        2.94822       -0.70991
C          0.91351       -2.41567       -2.03091
C          0.28254       -2.95873       -3.13395
C         -0.51920       -2.16292       -3.92713
C         -0.69618       -0.81758       -3.64562
C         -0.03489       -0.26143       -2.53415
Cl         1.91015        0.31014        2.87403
Cl        -1.24896       -0.43311        3.26032
C         -1.54812        0.02223       -4.53149
C          1.29606        1.74234       -4.23353
H         -0.14123        4.92326       -1.22132
H         -1.26843        3.25391        0.19997
H          1.54456       -3.02329       -1.40213
H          0.41801       -4.00007       -3.37593
H          1.02609        4.19394       -3.26073
H         -1.01470       -2.58607       -4.78448
C         -3.48968       -3.27660       -1.56034
C         -3.89973       -2.05250       -2.07219
C         -3.29132       -0.90493       -1.57713
C         -2.31520       -0.99262       -0.61456
C         -1.93229       -2.21191       -0.11064
C         -2.52025       -3.38285       -0.57097
H         -3.95727       -4.16730       -1.93535
H         -3.58506        0.06875       -1.92793
H         -1.18442       -2.24826        0.66156
C         -5.20655        2.90315        1.58032
C         -4.51051        2.11853        2.49123
C         -3.42152        1.39550        2.02527
C         -3.04846        1.45648        0.70738
C         -3.75519        2.23068       -0.18054
C         -4.84851        2.97658        0.23951
H         -6.04650        3.47156        1.93297
H         -2.84581        0.77825        2.68906
H         -3.43812        2.26938       -1.20952
C          4.24943       -3.34589        1.87392
C          2.88481       -3.39616        2.13645
C          2.05054       -2.54681        1.41963
C          2.57099       -1.64506        0.52267
C          3.92396       -1.60107        0.29308
C          4.79209       -2.45812        0.95355
H          4.90750       -4.00065        2.41164
H          0.99019       -2.55816        1.59955
H          4.31709       -0.86702       -0.38742
C          4.28253        3.06250       -1.29468
C          3.40768        3.19171       -0.22332
C          2.57539        2.11876        0.06646
C          2.59837        0.99118       -0.71432
C          3.45126        0.88807       -1.78615
C          4.32518        1.92499       -2.09159
H          4.96795        3.86395       -1.49956
H          1.91555        2.14464        0.91565
H          3.43582       -0.01505       -2.37240
Pd         0.12386        0.03314        1.54181
C         -5.35076       -0.55812       -3.53596
C         -5.03114       -2.00385       -3.10931
C         -6.30443       -2.61598       -2.49544
C         -4.62099       -2.80940       -4.35571
H         -4.48107       -0.07321       -3.97677
H         -6.14940       -0.54052       -4.27742
H         -5.68065        0.03404       -2.68301
H         -7.13512       -2.57612       -3.19984
H         -6.15063       -3.65879       -2.22056
H         -6.59708       -2.07294       -1.59693
H         -5.39792       -2.76909       -5.11896
H         -3.70313       -2.41434       -4.78815
H         -4.44895       -3.85696       -4.11149
C         -2.20921       -4.66219        1.56612
C         -2.10315       -4.73252        0.02988
C         -0.65562       -5.03965       -0.38559
C         -3.00623       -5.88117       -0.46060
H         -1.55339       -3.89772        1.97972
H         -3.22830       -4.42301        1.86907
H         -1.93807       -5.61500        2.02040
H          0.02067       -4.25251       -0.05667
H         -0.31610       -5.98314        0.04113
H         -0.57690       -5.11539       -1.46931
H         -2.72081       -6.82321        0.00755
H         -4.05043       -5.69090       -0.21290
H         -2.92415       -6.01430       -1.53909
C         -4.05054        1.14613        4.79885
C         -4.94867        2.07928        3.96254
C         -6.39753        1.56539        4.04859
C         -4.86290        3.49738        4.55601
H         -4.37501        1.12592        5.83904
H         -4.08727        0.12429        4.42197
H         -3.01369        1.48121        4.78382
H         -6.72952        1.50632        5.08498
H         -7.08387        2.22272        3.51613
H         -6.47903        0.57073        3.61065
H         -5.14929        3.49822        5.60757
H         -3.84647        3.88374        4.48256
H         -5.52193        4.18756        4.03063
C         -6.09910        2.99083       -1.93610
C         -5.58721        3.86207       -0.77388
C         -4.61324        4.92535       -1.31515
C         -6.79174        4.57884       -0.13436
H         -6.65729        3.58922       -2.65593
H         -5.27509        2.51695       -2.46801
H         -6.75800        2.20518       -1.56684
H         -4.22444        5.53987       -0.50340
H         -3.76485        4.46404       -1.81973
H         -5.10952        5.58234       -2.02915
H         -6.47381        5.23436        0.67617
H         -7.31075        5.19358       -0.86972
H         -7.50974        3.86086        0.26165
C          3.39038       -5.00929        4.04294
C          2.29103       -4.30508        3.22398
C          1.40819       -5.37670        2.56681
C          1.44102       -3.45418        4.18946
H          2.95264       -5.61725        4.83464
H          3.98702       -5.67076        3.41520
H          4.05397       -4.28313        4.51217
H          0.57662       -4.91691        2.03873
H          1.98066       -5.96487        1.84975
H          0.99532       -6.05639        3.31208
H          1.04504       -4.06335        5.00158
H          2.03962       -2.65503        4.62589
H          0.59528       -2.99433        3.68015
C          6.56854       -2.54638       -0.81677
C          6.29952       -2.34305        0.68626
C          7.10148       -3.39721        1.47284
C          6.77805       -0.94203        1.11193
H          6.06473       -1.78936       -1.41626
H          7.63485       -2.48596       -1.03390
H          6.21185       -3.52312       -1.14296
H          6.97310       -3.26741        2.54724
H          6.78890       -4.40657        1.20583
H          8.16650       -3.31275        1.25694
H          6.26700       -0.16122        0.54964
H          6.57961       -0.77335        2.17012
H          7.84894       -0.82718        0.94551
C          3.20808        5.69376       -0.28974
C          3.40952        4.47050        0.62449
C          4.75717        4.58467        1.35823
C          2.27694        4.45664        1.67076
H          2.27667        5.60729       -0.84825
H          3.16761        6.61364        0.29333
H          4.02064        5.79266       -1.00825
H          5.58606        4.63782        0.65312
H          4.78851        5.47843        1.98108
H          4.91938        3.71886        2.00006
H          2.26312        5.38662        2.23877
H          1.30400        4.34566        1.19251
H          2.40715        3.64085        2.38143
C          5.32981        3.05128       -4.11134
C          5.37607        1.80583       -3.20498
C          5.13714        0.55991       -4.08080
C          6.76834        1.69120       -2.55836
H          4.33972        3.17977       -4.54654
H          5.57280        3.95768       -3.55871
H          6.04584        2.96305       -4.92830
H          5.23265       -0.35606       -3.49846
H          4.14524        0.58024       -4.53095
H          5.86682        0.50992       -4.88887
H          6.82205        0.81555       -1.91184
H          7.54566        1.59948       -3.31672
H          6.99223        2.56803       -1.95148
H         -0.97515        0.40071       -5.37872
H          0.75823        2.03334       -5.13688
H         -1.95825        0.87674       -3.99099
H         -2.38505       -0.55067       -4.93054
H          1.46609        0.66570       -4.27032
H          2.27119        2.22890       -4.25580
