87
-129.18255858
P         -1.55175       -0.27435       -0.42380
P          1.73086        0.29770        0.25808
C         -1.09302        0.97139       -1.63305
C          1.52677       -0.80745       -1.16269
C          0.01514        0.73751       -2.43715
C          0.37833        1.70678       -3.39320
C         -0.39047        2.85329       -3.51284
C         -1.49076        3.06255       -2.70692
C         -1.84023        2.11591       -1.76400
C          2.14627       -2.02526       -1.00446
C          2.03742       -2.99857       -1.97882
C          1.28954       -2.74890       -3.10830
C          0.63890       -1.53932       -3.28076
C          0.76283       -0.53963       -2.29675
Cl         0.96846       -0.25384        3.34936
Cl        -1.67768       -1.86147        2.38348
H         -2.07358        3.96320       -2.80933
H         -2.70045        2.26625       -1.13312
H          2.71280       -2.21567       -0.10493
H          2.52743       -3.94980       -1.85094
H         -0.11253        3.59233       -4.24498
H          1.19148       -3.50704       -3.86675
C         -2.47099       -4.17862       -2.55597
C         -1.66766       -4.20039       -1.42407
C         -1.40784       -3.00104       -0.77279
C         -1.93788       -1.82245       -1.24271
C         -2.74332       -1.81004       -2.35721
C         -3.01299       -2.99484       -3.01697
H         -2.66847       -5.10049       -3.07595
C         -1.05549       -5.46740       -0.94052
H         -0.78677       -2.99331        0.10668
H         -3.14415       -0.87331       -2.71183
H         -3.63742       -2.99195       -3.89529
C         -5.18316        1.10416        1.96014
C         -5.25348       -0.04541        1.19895
C         -4.15342       -0.45770        0.47132
C         -2.99553        0.28353        0.50364
C         -2.92321        1.42813        1.26308
C         -4.01547        1.85316        2.00917
H         -6.03870        1.42729        2.52839
H         -6.16247       -0.62388        1.17564
H         -4.19057       -1.36051       -0.11606
H         -2.01231        2.00044        1.27614
C         -3.93398        3.09585        2.82389
C          6.09494       -0.00964        1.52891
C          5.76257        0.16446        0.19995
C          4.43385        0.24997       -0.17356
C          3.44893        0.16143        0.78332
C          3.78118       -0.01119        2.10544
C          5.10863       -0.10784        2.50009
H          7.12881       -0.07037        1.82358
H          6.53711        0.23507       -0.54606
H          4.15917        0.37936       -1.20870
H          2.99883       -0.07676        2.83972
C          5.46227       -0.27153        3.93661
C          0.81586        4.71575       -0.30424
C          1.70354        4.08819       -1.15559
C          1.99081        2.74695       -0.98503
C          1.37989        2.04411        0.02610
C          0.52525        2.67610        0.90037
C          0.22497        4.02383        0.74374
H          0.58013        5.75716       -0.44268
H          2.16494        4.63974       -1.95824
H          2.67726        2.24073       -1.64407
H          0.12154        2.12846        1.73487
C         -0.72963        4.70455        1.65949
Pd        -0.13924       -0.53886        1.42423
C          1.56851        1.52673       -4.26947
C         -0.18581       -1.33124       -4.50383
H          2.20267        0.71137       -3.91939
H          1.26697        1.30375       -5.29366
H          2.17736        2.43181       -4.28902
H         -0.88871       -0.50723       -4.37752
H          0.44515       -1.10896       -5.36518
H         -0.76782       -2.22415       -4.73630
H         -0.06024       -5.60274       -1.36636
H         -0.95903       -5.46555        0.14621
H         -1.66201       -6.33056       -1.21815
H         -2.99377        3.13836        3.37540
H         -3.99614        3.98090        2.18927
H         -4.74538        3.14718        3.55118
H          4.67192       -0.79283        4.47870
H          6.38038       -0.84915        4.05294
H          5.61142        0.69915        4.41144
H         -1.72900        4.73302        1.22325
H         -0.79236        4.18802        2.61822
H         -0.41917        5.73150        1.85712
