171
-217.83956227
P         -1.70495        0.67784        0.25297
P          1.48264       -0.15622       -0.30152
C         -0.99252        1.79488       -0.97572
C          0.59403       -0.88520       -1.69076
C         -0.33775        1.37577       -2.12756
C          0.27680        2.34204       -2.94630
C          0.18897        3.67987       -2.60016
C         -0.47474        4.07809       -1.45981
C         -1.05497        3.12745       -0.64264
C          0.74395       -2.21529       -1.99671
C          0.05196       -2.76676       -3.05680
C         -0.79297       -1.97654       -3.80860
C         -0.95989       -0.63174       -3.51808
C         -0.23574       -0.07008       -2.44947
Cl         2.15213        1.28719        2.54811
Cl        -0.91891        0.75467        3.45107
C         -1.88167        0.20721       -4.33334
C          1.04812        1.96305       -4.16199
H         -0.53038        5.12238       -1.19926
H         -1.55233        3.42062        0.27030
H          1.40511       -2.82498       -1.40609
H          0.16810       -3.81218       -3.29175
H          0.66127        4.41331       -3.23193
H         -1.33112       -2.40478       -4.63706
C         -2.78732       -3.62723       -0.68284
C         -1.74017       -3.39290        0.20108
C         -1.37813       -2.07400        0.44484
C         -2.04836       -1.03968       -0.16695
C         -3.09260       -1.29283       -1.02203
C         -3.48236       -2.59581       -1.30268
H         -3.08498       -4.63939       -0.87656
H         -0.57934       -1.85568        1.13083
H         -3.63066       -0.46407       -1.44898
C         -5.71159        2.43477        1.44649
C         -5.34804        2.40390        0.10457
C         -4.10545        1.87492       -0.21961
C         -3.26809        1.40222        0.76052
C         -3.64286        1.44327        2.07807
C         -4.87425        1.96176        2.45092
H         -6.66844        2.83849        1.71572
H         -3.78324        1.83505       -1.24718
H         -2.95747        1.08058        2.82219
C          3.97684       -3.41722        1.68165
C          3.04414       -2.74909        2.46360
C          2.27163       -1.76646        1.85978
C          2.44345       -1.44584        0.53348
C          3.39167       -2.10307       -0.21215
C          4.16720       -3.11323        0.34006
H          4.57187       -4.18551        2.13835
H          1.54042       -1.23686        2.43992
H          3.52862       -1.83203       -1.24431
C          4.45993        2.82047       -1.98510
C          3.74827        3.16872       -0.84315
C          2.84575        2.24583       -0.33471
C          2.65363        1.03763       -0.95377
C          3.34994        0.71784       -2.09398
C          4.27774        1.60339       -2.63030
H          5.18818        3.50402       -2.37872
H          2.30260        2.46380        0.56709
H          3.14964       -0.22379       -2.57464
Pd         0.24245        0.67337        1.53835
C          0.44922       -4.57349        0.57300
C         -1.03832       -4.53133        0.95904
C         -1.65954       -5.90428        0.63629
C         -1.17675       -4.28238        2.47252
H          0.93767       -3.62865        0.79951
H          0.97407       -5.35865        1.11669
H          0.56525       -4.76913       -0.49241
H         -2.71588       -5.92973        0.90334
H         -1.56270       -6.14002       -0.42336
H         -1.15912       -6.69498        1.19527
H         -0.72892       -5.09380        3.04539
H         -0.68872       -3.35461        2.76623
H         -2.22671       -4.21065        2.75550
C         -4.90416       -4.34024       -2.49518
C         -4.71803       -2.84329       -2.18066
C         -4.57527       -2.08732       -3.51367
C         -5.96341       -2.33457       -1.43235
H         -5.08685       -4.91491       -1.58750
H         -5.75789       -4.49305       -3.15535
H         -4.02336       -4.74692       -2.99202
H         -5.43837       -2.26316       -4.15553
H         -4.49567       -1.01281       -3.35620
H         -3.68678       -2.42030       -4.04812
H         -5.87981       -1.27106       -1.21152
H         -6.86569       -2.48569       -2.02461
H         -6.08639       -2.86160       -0.48640
C         -6.58383        1.76222       -1.98010
C         -6.25673        2.92107       -1.01971
C         -5.52602        4.03897       -1.78732
C         -7.57918        3.48945       -0.47045
H         -7.23455        2.09652       -2.78790
H         -5.67973        1.35232       -2.42897
H         -7.09079        0.95582       -1.45077
H         -6.15436        4.44230       -2.58122
H         -5.26192        4.85663       -1.11694
H         -4.60760        3.67199       -2.24418
H         -8.20828        3.85659       -1.28130
H         -8.14343        2.72493        0.06333
H         -7.39628        4.32257        0.20798
C         -4.22458        2.84526        4.70504
C         -5.25356        1.99325        3.93841
C         -5.24934        0.55605        4.49204
C         -6.65285        2.59881        4.15952
H         -4.19427        3.86025        4.30950
H         -4.47623        2.90219        5.76383
H         -3.22287        2.42499        4.62336
H         -5.95371       -0.06956        3.94415
H         -4.26267        0.10216        4.40680
H         -5.53224        0.54233        5.54439
H         -6.90496        2.61206        5.21984
H         -6.69767        3.62584        3.79760
H         -7.41797        2.01651        3.64639
C          2.51634       -4.56249        4.11593
C          2.91396       -3.08437        3.95657
C          1.84790       -2.20986        4.64738
C          4.26578       -2.83240        4.64980
H          1.57198       -4.76302        3.61226
H          3.26931       -5.22388        3.68897
H          2.39989       -4.82413        5.16747
H          2.09863       -1.15196        4.57111
H          0.86421       -2.36240        4.20572
H          1.77355       -2.45496        5.70660
H          4.57315       -1.79434        4.52432
H          4.20112       -3.03893        5.71794
H          5.04883       -3.46579        4.23479
C          6.21740       -2.82165       -1.07145
C          5.18882       -3.83992       -0.54509
C          4.45403       -4.49476       -1.73028
C          5.93850       -4.93827        0.23255
H          6.73173       -2.33185       -0.24490
H          6.96647       -3.30935       -1.69498
H          5.73763       -2.04859       -1.67018
H          3.95437       -3.74953       -2.34825
H          5.14955       -5.04180       -2.36647
H          3.69825       -5.19506       -1.37487
H          6.65465       -5.44792       -0.41196
H          6.49220       -4.51682        1.07132
H          5.24704       -5.68863        0.61560
C          4.44027        4.23501        1.31556
C          3.93870        4.50627       -0.11509
C          2.59055        5.24844       -0.05876
C          4.96195        5.40667       -0.83290
H          4.60098        5.16722        1.85657
H          3.72281        3.64110        1.88057
H          5.38271        3.68829        1.29551
H          1.84159        4.66949        0.48038
H          2.69423        6.20946        0.44449
H          2.21191        5.43256       -1.06378
H          5.07489        6.35630       -0.31000
H          5.94291        4.93340       -0.87095
H          4.64327        5.62656       -1.85172
C          4.65857       -0.06760       -4.51240
C          5.13820        1.23939       -3.84969
C          6.59430        1.05142       -3.38771
C          5.07271        2.36406       -4.90098
H          4.75120       -0.91322       -3.83147
H          3.61775        0.01111       -4.82565
H          5.25445       -0.29403       -5.39645
H          6.98730        1.96748       -2.94769
H          6.66155        0.26495       -2.63631
H          7.23776        0.77689       -4.22339
H          4.04825        2.52836       -5.23216
H          5.45330        3.30477       -4.50581
H          5.66938        2.11021       -5.77704
H         -2.45130        0.88902       -3.69960
H          0.55323        2.31915       -5.06668
H         -2.59409       -0.40503       -4.88741
H         -1.32844        0.80470       -5.05840
H          1.16812        0.88227       -4.24374
H          2.04510        2.40313       -4.13145
