111
-148.54748568
P         -1.48954        2.69352        1.10133
P         -0.49918       -0.23759        0.45642
C         -1.13823        1.54007        2.46311
C         -0.80177        0.23355        2.17269
C         -0.23488        4.04490        1.00402
C          0.45213        4.03523       -0.34500
C         -1.16538        1.96120        3.77770
H         -1.36323        2.99542        4.00197
C         -0.89671        1.06521        4.79780
H         -0.92321        1.39543        5.82346
C         -0.58613       -0.24821        4.50380
H         -0.37106       -0.94448        5.29765
C         -0.52491       -0.66153        3.18555
H         -0.23942       -1.67134        2.93721
Pd        -1.65743        1.34371       -0.77672
Cl        -3.11385        2.79590       -1.66281
Cl        -1.49176       -0.04332       -2.53819
C         -1.06755        5.31582        1.27543
C         -3.04824        3.68742        1.27484
H          0.97466        3.09224       -0.51997
H         -0.27715        4.16104       -1.14795
H          1.18279        4.84321       -0.42912
H         -0.64864        6.15703        0.70410
H         -0.97688        5.60330        2.33333
H         -3.73984        3.30571        0.51218
C         -2.56957        5.11203        0.92602
C         -3.68984        3.57925        2.64200
H          0.48905        3.86382        1.80950
H         -3.19426        5.84980        1.45070
H         -2.72146        5.30311       -0.14667
H         -4.65424        4.09162        2.67114
H         -3.85401        2.53688        2.92358
H         -3.06068        4.04019        3.40376
C         -0.74610       -4.73145       -0.23010
C         -1.78880       -3.89419       -0.70388
C         -1.70743       -2.53512       -0.44843
C         -0.60929       -1.99880        0.17032
C          0.45236       -2.78827        0.52885
C          0.43075       -4.15631        0.31350
O         -0.89151       -6.14373       -0.27352
C         -2.99571       -4.43729       -1.48548
H         -2.49869       -1.86887       -0.74553
H          1.30738       -2.31416        0.98011
C          1.66502       -4.99262        0.68605
C          3.64855        1.30831       -0.63942
C          3.23088        1.30314        0.71588
C          1.97947        0.79323        1.01556
C          1.14027        0.35273        0.02625
C          1.50144        0.44617       -1.29129
C          2.73029        0.96166       -1.66315
O          4.99170        1.63681       -0.96416
C          4.12481        1.82108        1.85300
H          1.64077        0.73402        2.03451
H          0.78434        0.13833       -2.03123
C          3.03679        1.14736       -3.15757
C         -3.52675       -3.37289       -2.47332
C         -2.60450       -5.66849       -2.32306
C         -4.11922       -4.80027       -0.50318
C          1.53313       -5.47391        2.13884
C          1.82316       -6.19700       -0.25970
C          2.95488       -4.14917        0.56111
C         -1.50911       -6.69905        0.88065
H         -4.29103       -3.79574       -3.12484
H         -3.98067       -2.53049       -1.95380
H         -2.72249       -2.99288       -3.10277
H         -3.44195       -6.01240       -2.92957
H         -1.77707       -5.43052       -2.99067
H         -2.29480       -6.49669       -1.69054
H         -3.79621       -5.56351        0.20072
H         -4.42496       -3.92683        0.07225
H         -4.99327       -5.17876       -1.03255
H          1.45140       -4.62672        2.81947
H          0.64727       -6.09049        2.27070
H          2.40054       -6.06310        2.43538
H          2.73352       -6.75319       -0.03746
H          0.98675       -6.88553       -0.16812
H          1.87186       -5.86647       -1.29669
H          2.99903       -3.36487        1.31543
H          3.83888       -4.77196        0.69639
H          3.02057       -3.68402       -0.42223
H         -2.41911       -7.22449        0.59156
H         -0.83457       -7.41782        1.34560
H         -1.75389       -5.91361        1.59678
C          5.85894        0.51332       -1.05135
C          3.27329        2.30448        3.04905
C          5.04171        0.68720        2.33558
C          4.96530        3.02235        1.38384
C          3.98732        2.33649       -3.38644
C          3.65484       -0.14379       -3.71439
C          1.74044        1.45413       -3.94322
H          2.53016        3.03288        2.72730
H          2.75758        1.47882        3.53737
H          3.90069        2.77950        3.80290
H          4.45355       -0.16013        2.68749
H          5.68567        0.33329        1.53449
H          5.67759        1.02118        3.15509
H          4.32205        3.81422        1.00123
H          5.55641        3.43106        2.20296
H          5.65324        2.73853        0.59098
H          4.95721        2.16473       -2.92683
H          4.15233        2.50736       -4.44994
H          3.57138        3.24742       -2.95708
H          2.97061       -0.98272       -3.58921
H          3.87623       -0.04420       -4.77668
H          4.57979       -0.39268       -3.19967
H          1.07141        0.59556       -3.97152
H          1.96675        1.71612       -4.97641
H          1.20435        2.29071       -3.49573
H          6.24962        0.42791       -2.06504
H          6.70131        0.65127       -0.37358
H          5.32544       -0.40106       -0.78848
