171
-217.83395077
P         -1.43423        0.21725       -0.40140
P          1.65905       -0.74223        0.35719
C         -0.39032        1.03712       -1.63078
C          1.05215       -1.73976       -1.02675
C          0.45528        0.24930       -2.40132
C          1.29344        0.86209       -3.35284
C          1.22481        2.23479       -3.52439
C          0.38372        3.00429       -2.74900
C         -0.41469        2.40120       -1.79777
C          1.09651       -3.09730       -0.81298
C          0.59673       -3.96911       -1.76080
C          0.02226       -3.46845       -2.90938
C         -0.05179       -2.10449       -3.13569
C          0.49386       -1.21852       -2.18808
Cl         0.62339       -1.33598        3.37683
Cl        -2.37014       -1.66240        2.20699
C         -0.72898       -1.61338       -4.36691
C          2.23784        0.05381       -4.17317
H          0.35806        4.07417       -2.87692
H         -1.03258        3.00691       -1.15942
H          1.51891       -3.47292        0.10747
H          0.64353       -5.03304       -1.59514
H          1.84579        2.70218       -4.26958
H         -0.38798       -4.14105       -3.64381
C         -4.30868       -2.49614       -2.62397
C         -3.63782       -3.00934       -1.51971
C         -2.75981       -2.17229       -0.84583
C         -2.56320       -0.88020       -1.26167
C         -3.23162       -0.39041       -2.35638
C         -4.12337       -1.18931       -3.06108
H         -5.00062       -3.12570       -3.14908
H         -2.24197       -2.52656        0.02724
H         -3.05549        0.62554       -2.66586
C         -4.05975        3.32328        1.67000
C         -3.46763        2.33531        2.44538
C         -2.66788        1.40173        1.80332
C         -2.47386        1.43989        0.44308
C         -3.11246        2.39756       -0.30870
C         -3.89276        3.37743        0.29260
H         -4.67745        4.06451        2.14108
H         -2.22801        0.61087        2.38018
H         -3.00217        2.37728       -1.37816
C          5.60653       -2.58404        1.62164
C          4.71029       -2.20632        2.61558
C          3.49493       -1.66503        2.22225
C          3.19244       -1.51042        0.89442
C          4.08778       -1.89001       -0.07513
C          5.31652       -2.43771        0.26958
H          6.55153       -3.00422        1.90706
H          2.76528       -1.37759        2.95689
H          3.82260       -1.76035       -1.11165
C          2.77003        3.63440       -0.06589
C          3.55264        2.66429       -0.67912
C          3.15314        1.34062       -0.55508
C          2.02436        1.00947        0.15318
C          1.27115        1.98213        0.77013
C          1.62661        3.32162        0.65901
H          3.06462        4.66460       -0.13307
H          3.74694        0.55460       -0.98890
H          0.40432        1.69194        1.33565
Pd        -0.40845       -0.89070        1.43811
C         -4.45249       -4.34922        0.43177
C         -3.86849       -4.43228       -0.99100
C         -2.52857       -5.18908       -0.95447
C         -4.84872       -5.22084       -1.88014
H         -4.64288       -5.34355        0.83497
H         -3.76941       -3.83918        1.11003
H         -5.39279       -3.79849        0.43014
H         -2.09174       -5.24334       -1.95105
H         -1.81212       -4.69515       -0.29927
H         -2.66483       -6.20714       -0.59031
H         -5.82684       -4.74108       -1.90832
H         -4.47298       -5.30297       -2.89993
H         -4.98958       -6.23170       -1.49762
C         -5.76261       -1.64658       -4.95610
C         -4.91112       -0.58523       -4.23329
C         -3.93927        0.03231       -5.25706
C         -5.84623        0.50932       -3.68738
H         -6.29020       -1.20750       -5.80280
H         -5.13875       -2.45486       -5.33748
H         -6.51180       -2.07210       -4.28884
H         -4.48397        0.47226       -6.09228
H         -3.33175        0.81779       -4.80953
H         -3.26830       -0.72559       -5.65941
H         -6.53979        0.09411       -2.95644
H         -5.27976        1.29969       -3.19671
H         -6.42949        0.96220       -4.48890
C         -4.58856        3.34558        4.49588
C         -3.70011        2.20784        3.95819
C         -2.34956        2.25478        4.69709
C         -4.39542        0.86348        4.24468
H         -4.73565        3.24571        5.57122
H         -4.13184        4.31831        4.31386
H         -5.57205        3.33110        4.02659
H         -1.68686        1.45538        4.36767
H         -1.84677        3.20497        4.52136
H         -2.49101        2.14576        5.77213
H         -4.59651        0.74636        5.30927
H         -5.34377        0.79953        3.71177
H         -3.77796        0.02376        3.92785
C         -4.17194        4.43456       -2.00751
C         -4.55341        4.50326       -0.51529
C         -4.08815        5.86413        0.03693
C         -6.08279        4.38394       -0.39328
H         -3.09263        4.50870       -2.14013
H         -4.51301        3.50368       -2.45894
H         -4.62957        5.25402       -2.56156
H         -3.00269        5.94864       -0.01473
H         -4.51827        6.68525       -0.53625
H         -4.38447        5.99443        1.07694
H         -6.40441        4.47406        0.64370
H         -6.58238        5.16398       -0.96752
H         -6.42379        3.41834       -0.76653
C          6.40155       -2.97845        4.35702
C          5.00815       -2.36796        4.11314
C          3.95074       -3.29467        4.74202
C          4.95415       -0.98644        4.79175
H          6.48007       -3.96881        3.90894
H          7.18537       -2.34609        3.94043
H          6.59579       -3.08370        5.42436
H          4.14407       -3.44340        5.80415
H          2.94905       -2.87856        4.64116
H          3.95716       -4.27056        4.25709
H          3.96727       -0.53568        4.69364
H          5.18010       -1.06475        5.85501
H          5.67805       -0.30774        4.34113
C          6.64883       -1.61141       -1.68708
C          6.28972       -2.84953       -0.84410
C          5.61576       -3.90692       -1.73881
C          7.59027       -3.44773       -0.27472
H          7.11327       -0.84525       -1.06681
H          7.34730       -1.87012       -2.48266
H          5.76358       -1.17685       -2.14998
H          4.71628       -3.51260       -2.21040
H          6.28951       -4.23567       -2.52985
H          5.33009       -4.78057       -1.15328
H          8.26675       -3.73739       -1.07878
H          8.11347       -2.72512        0.35130
H          7.38522       -4.33765        0.32007
C          6.03583        2.41757       -0.56082
C          4.87318        2.99108       -1.39113
C          5.07534        4.51049       -1.54693
C          4.88273        2.35791       -2.79429
H          5.94083        1.33821       -0.44715
H          6.99512        2.62287       -1.03550
H          6.05009        2.85668        0.43651
H          4.25131        4.95868       -2.10206
H          5.14659        5.00066       -0.57628
H          5.99625        4.72419       -2.08940
H          4.05714        2.74068       -3.39233
H          5.81062        2.58634       -3.31836
H          4.79111        1.27406       -2.74349
C          0.42548        5.50842        0.31329
C          0.84181        4.44729        1.34992
C          1.73475        5.09436        2.42397
C         -0.43101        3.91639        2.02989
H          1.29247        5.95874       -0.16797
H         -0.19761        5.06776       -0.46362
H         -0.14496        6.30857        0.78470
H          2.04713        4.35430        3.16055
H          2.63214        5.52708        1.98315
H          1.20263        5.88848        2.94748
H         -0.98140        4.72390        2.51247
H         -1.09428        3.45750        1.29958
H         -0.18839        3.17703        2.79220
H         -0.13833       -1.84029       -5.25556
H          1.74828       -0.32631       -5.07043
H         -0.89096       -0.53536       -4.33287
H         -1.70358       -2.09012       -4.48210
H          2.61841       -0.79854       -3.60796
H          3.09581        0.64775       -4.49067
