171
-217.83454837
P         -1.60433        0.82044        0.33181
P          1.42889       -0.32554       -0.39864
C         -0.94477        1.75376       -1.07173
C          0.36227       -1.10905       -1.62974
C         -0.42004        1.17568       -2.22208
C          0.17225        2.00730       -3.19077
C          0.17374        3.37816       -2.99753
C         -0.36368        3.93642       -1.85772
C         -0.90888        3.11613       -0.88876
C          0.34192       -2.47398       -1.78956
C         -0.47480       -3.05465       -2.73937
C         -1.29152       -2.26123       -3.51658
C         -1.31559       -0.88660       -3.35108
C         -0.45379       -0.29633       -2.40622
Cl         2.49667        1.45539        2.11291
Cl        -0.54190        1.09740        3.44125
C         -2.24022       -0.05764       -4.17273
C          0.81807        1.44802       -4.41030
H         -0.34820        5.00480       -1.71666
H         -1.30586        3.53663        0.02347
H          0.94455       -3.09615       -1.15212
H         -0.48191       -4.12494       -2.86586
H          0.61186        4.00916       -3.75229
H         -1.92546       -2.70951       -4.26245
C         -3.00447       -3.46327       -0.15006
C         -1.85964       -3.23488        0.60308
C         -1.42280       -1.92231        0.73987
C         -2.09737       -0.89689        0.11782
C         -3.22770       -1.14451       -0.62159
C         -3.71108       -2.43856       -0.76494
H         -3.36861       -4.46964       -0.24525
H         -0.55188       -1.69369        1.32702
H         -3.74042       -0.31426       -1.07417
C         -5.36266        2.96971        1.67469
C         -5.13819        2.76599        0.31839
C         -3.96345        2.12540       -0.05676
C         -3.06340        1.70633        0.89235
C         -3.30286        1.91735        2.22521
C         -4.45843        2.55795        2.64697
H         -6.26877        3.46224        1.97356
H         -3.73659        1.95122       -1.09494
H         -2.57143        1.58814        2.94050
C          3.87993       -3.54472        1.71618
C          3.76950       -3.56352        0.33223
C          3.03916       -2.55102       -0.27754
C          2.39603       -1.59219        0.46867
C          2.52273       -1.59776        1.83768
C          3.27532       -2.56308        2.48988
H          4.46076       -4.31069        2.19456
H          2.96412       -2.51170       -1.34939
H          2.05739       -0.82460        2.41888
C          4.35001        2.36827       -2.58150
C          4.23293        1.03867       -2.96934
C          3.33413        0.23836       -2.27586
C          2.59173        0.75043       -1.24090
C          2.71318        2.06878       -0.88032
C          3.60177        2.90592       -1.54188
H          5.04559        3.00672       -3.09275
H          3.20562       -0.79305       -2.55411
H          2.10863        2.44141       -0.07336
Pd         0.44758        0.83287        1.44377
C         -2.10789       -5.00711        2.35261
C         -1.16075       -4.41594        1.29311
C          0.13852       -3.97694        1.98902
C         -0.80606       -5.49649        0.25376
H         -1.63799       -5.83994        2.87550
H         -2.37654       -4.25235        3.09154
H         -3.02813       -5.37299        1.89843
H         -0.06255       -3.23101        2.75688
H          0.62942       -4.82391        2.46808
H          0.83821       -3.55510        1.27001
H         -0.29824       -6.33731        0.72602
H         -1.69583       -5.88258       -0.24150
H         -0.14380       -5.09469       -0.51165
C         -6.01292       -3.40988       -0.56997
C         -5.00652       -2.74716       -1.52901
C         -4.69928       -3.70015       -2.69733
C         -5.64982       -1.46609       -2.09628
H         -6.22174       -2.75799        0.27814
H         -6.95545       -3.61787       -1.07615
H         -5.62885       -4.35221       -0.18119
H         -3.99746       -3.24164       -3.39209
H         -4.26062       -4.63257       -2.34397
H         -5.60638       -3.94528       -3.24950
H         -5.90347       -0.76892       -1.29789
H         -4.97874       -0.96442       -2.79247
H         -6.56842       -1.69944       -2.63439
C         -5.72665        2.91726       -2.15347
C         -6.17741        3.22925       -0.71228
C         -6.37944        4.75020       -0.58410
C         -7.50935        2.50241       -0.45095
H         -4.78882        3.42021       -2.38890
H         -5.59065        1.84587       -2.29963
H         -6.47180        3.25523       -2.87349
H         -7.09754        5.11168       -1.31997
H         -6.75137        5.01920        0.40380
H         -5.43889        5.27748       -0.74274
H         -7.89761        2.73170        0.54072
H         -8.26380        2.79590       -1.18067
H         -7.37773        1.42254       -0.51704
C         -6.01673        3.50985        4.42190
C         -4.68756        2.78034        4.14862
C         -3.53615        3.63181        4.71584
C         -4.72157        1.41620        4.86256
H         -6.03139        4.48991        3.94540
H         -6.86430        2.93237        4.05322
H         -6.16168        3.66122        5.49152
H         -2.57631        3.13109        4.59460
H         -3.47915        4.59205        4.20374
H         -3.67944        3.82340        5.77903
H         -3.77902        0.88338        4.74217
H         -4.90071        1.53891        5.93052
H         -5.51469        0.78881        4.45632
C          3.90978       -6.04698        0.01962
C          4.43684       -4.68634       -0.47434
C          5.96163       -4.61320       -0.27921
C          4.12794       -4.56863       -1.98028
H          2.82595       -6.09946       -0.08396
H          4.34390       -6.86524       -0.55466
H          4.15370       -6.21140        1.06839
H          6.34534       -3.64804       -0.60966
H          6.23242       -4.73976        0.76840
H          6.46628       -5.39147       -0.85144
H          3.05461       -4.61181       -2.16501
H          4.51231       -3.63504       -2.38951
H          4.59123       -5.38460       -2.53478
C          4.15308       -1.14595        4.35631
C          3.45034       -2.47324        4.01336
C          4.30192       -3.63543        4.55836
C          2.07270       -2.51597        4.70028
H          4.31471       -1.05500        5.43012
H          5.12197       -1.08453        3.86141
H          3.56026       -0.29037        4.03480
H          3.83828       -4.59709        4.33890
H          5.30208       -3.62596        4.12558
H          4.41081       -3.56048        5.64025
H          2.17541       -2.43072        5.78184
H          1.43366       -1.70053        4.36356
H          1.56451       -3.45546        4.48680
C          6.01808       -0.63943       -3.46825
C          5.08613        0.41925       -4.08568
C          5.94739        1.47862       -4.79961
C          4.17159       -0.24579       -5.13222
H          6.64525       -1.10159       -4.23035
H          6.67019       -0.18899       -2.72022
H          5.44731       -1.42818       -2.97993
H          6.65211        1.94291       -4.11010
H          6.52635        1.02706       -5.60517
H          5.32460        2.25910       -5.23658
H          4.75947       -0.69068       -5.93490
H          3.56576       -1.03557       -4.68989
H          3.49805        0.48576       -5.57713
C          3.47864        5.28713       -2.32853
C          3.79530        4.37265       -1.13171
C          5.25437        4.58355       -0.68768
C          2.87042        4.76134        0.03910
H          2.45102        5.14469       -2.65993
H          3.60314        6.33627       -2.06096
H          4.13481        5.07816       -3.17254
H          5.50029        3.92584        0.14583
H          5.94997        4.37057       -1.49852
H          5.42016        5.61188       -0.36707
H          1.82229        4.63403       -0.22916
H          3.07688        4.15396        0.92011
H          3.01518        5.80511        0.31699
H         -2.52034        0.85778       -3.64906
H          0.97129        0.37148       -4.32469
H         -3.15873       -0.60114       -4.39898
H         -1.77668        0.22168       -5.11963
H          1.79481        1.90697       -4.57122
H          0.20966        1.63537       -5.29611
