111
-148.55426389
P         -2.76600        1.72456       -0.31440
P          0.18640        0.63294        0.10310
C         -1.81561        2.23021        1.14300
C         -0.51060        1.80926        1.28681
C         -3.83879        3.09389       -0.94540
C         -3.22891        3.77340       -2.15193
C         -2.39059        3.03716        2.10393
H         -3.41681        3.34769        1.99527
C         -1.65172        3.42919        3.20673
H         -2.09988        4.05923        3.95765
C         -0.34196        3.01288        3.34625
H          0.23330        3.31615        4.20553
C          0.22773        2.19663        2.38617
H          1.24346        1.85176        2.49200
Pd        -1.21462        0.81784       -1.75601
Cl        -2.80926        0.73204       -3.32708
Cl         0.43272       -0.17516       -2.91622
C         -5.17423        2.37604       -1.21350
C         -4.04339        0.42287        0.00543
H         -3.86721        4.57953       -2.52099
H         -2.24949        4.19633       -1.91612
H         -3.09080        3.06426       -2.96902
H         -5.18347        2.02769       -2.25563
H         -6.01405        3.08271       -1.12982
H         -3.87893       -0.35460       -0.75282
C         -5.36933        1.16193       -0.26052
C         -3.91666       -0.15048        1.39990
H         -3.95179        3.80794       -0.11991
H         -5.77628        1.51249        0.69790
H         -6.12113        0.46562       -0.66198
H         -2.94583       -0.62730        1.54387
H         -4.01021        0.63511        2.15192
H         -4.69093       -0.89525        1.59809
C         -1.26974       -3.47996        1.40667
C         -0.93062       -3.25070        0.04905
C         -0.47086       -1.99551       -0.30522
C         -0.29825       -1.01094        0.63056
C         -0.51517       -1.26253        1.95974
C         -0.95723       -2.50341        2.38752
O         -1.96368       -4.66308        1.77476
C         -1.11526       -4.31076       -1.04677
H         -0.25821       -1.75599       -1.33182
H         -0.35919       -0.46306        2.66276
C         -1.13088       -2.75241        3.89345
C          4.73056        0.92666       -0.06255
C          3.96216        1.36294       -1.17238
C          2.58144        1.29598       -1.08203
C          1.97098        0.73584        0.00899
C          2.71358        0.20291        1.03091
C          4.09732        0.25857        1.01586
O          6.12722        1.18139       -0.01591
C          4.60039        1.89770       -2.46460
H          1.95903        1.66668       -1.87753
H          2.19113       -0.26335        1.84839
C          4.88708       -0.37293        2.17296
C         -2.52325       -4.17435       -1.64674
C         -0.07793       -4.11390       -2.17605
C         -0.90888       -5.73013       -0.48851
C         -0.07976       -1.95445        4.69831
C         -2.53261       -2.29661        4.32654
C         -0.92495       -4.23823        4.23977
C         -3.37971       -4.53412        1.73924
H         -2.68223       -4.90400       -2.44021
H         -3.29021       -4.32663       -0.89103
H         -2.66700       -3.17976       -2.06874
H          0.93270       -4.07168       -1.77099
H         -0.11957       -4.93812       -2.88765
H         -0.26062       -3.19889       -2.73749
H         -0.97917       -6.47639       -1.27947
H          0.07199       -5.82019       -0.02296
H         -1.65726       -5.97438        0.26120
H         -0.24962       -0.88082        4.63336
H         -0.11745       -2.22076        5.75436
H          0.92598       -2.16511        4.33581
H         -2.66993       -1.23331        4.13137
H         -3.30706       -2.83529        3.78537
H         -2.68613       -2.46568        5.39201
H          0.04999       -4.58080        3.89458
H         -0.98065       -4.40141        5.31576
H         -1.68194       -4.86344        3.77318
H         -3.66281       -3.53367        1.40972
H         -3.79680       -5.27286        1.05496
H         -3.78996       -4.71882        2.73186
C          6.46914        2.44372        0.54232
C          5.96810        1.23914       -2.72220
C          3.70921        1.56968       -3.68495
C          4.75628        3.42239       -2.36505
C          6.22785       -0.94465        1.67782
C          5.13146        0.68620        3.25854
C          4.09900       -1.54554        2.80036
H          5.87162        0.15429       -2.75038
H          6.38867        1.56728       -3.67241
H          6.68302        1.48956       -1.94259
H          4.21750        1.82191       -4.61524
H          3.46643        0.50775       -3.71287
H          2.77707        2.13208       -3.66776
H          5.39192        3.70025       -1.52770
H          5.19911        3.82948       -3.27370
H          3.78777        3.89985       -2.21831
H          6.76142       -1.44723        2.48416
H          6.06522       -1.66543        0.87721
H          6.87546       -0.16008        1.29401
H          5.67931        0.26350        4.10036
H          5.70658        1.52309        2.87013
H          4.18642        1.07888        3.63328
H          3.20887       -1.19782        3.32258
H          4.71023       -2.07590        3.53024
H          3.79323       -2.26073        2.03714
H          5.57170        2.97365        0.86397
H          7.13080        2.29709        1.39591
H          6.99878        3.04155       -0.19910
