72
-98.09213484
Fe        -0.01669        2.77511       -0.25195
P          1.90777       -0.02082        0.08037
P         -1.83707       -0.09562        0.01405
C          1.45080        1.68289        0.57667
C          0.45848        2.03127        1.57706
C          0.36547        3.47995        1.63446
C          1.32525        4.03134        0.69512
C          1.99846        2.92052        0.04366
C         -1.36235        1.43869       -0.87826
C         -1.99122        2.74208       -0.72762
C         -1.29754        3.68155       -1.59220
C         -0.25256        2.95890       -2.29323
C         -0.29659        1.57496       -1.85639
C          2.98907        0.04755       -1.43341
C          4.41084        0.24435       -0.84934
C          3.21669       -0.60758        1.25323
C          4.45571        0.11627        0.70160
C         -3.28117       -0.88761       -0.85042
C         -4.45466       -0.71805        0.13802
C         -2.67695        0.42035        1.58579
C         -4.16989        0.36195        1.21519
H         -0.09120        1.32402        2.19813
H         -0.28586        4.05378        2.29784
H          1.51504        5.09212        0.51687
H          2.78267        2.99680       -0.71235
H         -2.84095        2.97109       -0.08116
H          0.37069        0.77894       -2.18321
Cl         1.67230       -3.06295        0.24130
Cl        -1.46281       -3.12043       -0.06747
Pd         0.07405       -1.47472        0.07901
H          2.67650        0.92313       -2.01455
C          2.89272       -1.21444       -2.29359
H          3.31973       -1.68999        1.11710
C          2.90296       -0.28808        2.71023
H          4.82520        1.21329       -1.16519
H          5.07863       -0.50727       -1.29274
H          5.37623       -0.39024        1.03137
H          4.49666        1.11800        1.15403
H         -1.53574        4.74101       -1.71052
H          0.44049        3.37886       -3.02576
H          3.75308       -1.24058       -2.97701
H          3.80922       -0.43718        3.31358
H         -3.04530       -1.94925       -0.98368
C         -3.53882       -0.27013       -2.22190
H         -2.36793        1.46168        1.74845
C         -2.29470       -0.41922        2.80577
H         -4.67414       -1.67865        0.62499
H         -5.36820       -0.46691       -0.41954
H         -4.49936        1.34209        0.83962
H         -4.76892        0.17970        2.11940
H         -4.53584       -0.57067       -2.57326
H         -2.71109        0.05196        3.70722
C          1.61144       -1.33947       -3.10355
H          0.73203       -1.39243       -2.46316
H          1.48034       -0.48682       -3.77242
H          1.60806       -2.24035       -3.72145
C          1.76464       -1.12513        3.26913
H          1.53904       -0.87465        4.30812
H          0.85304       -0.98142        2.69063
H          2.00084       -2.19012        3.22894
C         -2.49385       -0.66509       -3.25410
H         -2.48537       -1.74499       -3.41377
H         -2.67043       -0.18952       -4.22142
H         -1.49194       -0.38664       -2.92955
C         -2.74188       -1.87003        2.74570
H         -3.82935       -1.95552        2.73639
H         -2.37131       -2.36065        1.84699
H         -2.38125       -2.44495        3.60185
H          3.01874       -2.08908       -1.64261
H          2.67147        0.78145        2.79673
H         -3.58774        0.82127       -2.11543
H         -1.20742       -0.37807        2.93976
