87
-129.17905125
P         -1.40957       -0.22425       -0.29622
P          1.83613        0.29918        0.26932
C         -0.97404        0.90430       -1.62615
C          1.59213       -0.90110       -1.06558
C          0.10194        0.57439       -2.43977
C          0.45446        1.44556       -3.48985
C         -0.30087        2.58870       -3.69566
C         -1.37636        2.88901       -2.88505
C         -1.71066        2.04205       -1.84672
C          2.18600       -2.11697       -0.81844
C          2.03962       -3.16220       -1.70989
C          1.28100       -2.98532       -2.84586
C          0.65858       -1.77712       -3.10801
C          0.82119       -0.70512       -2.20914
Cl         1.14772       -0.05739        3.44358
Cl        -1.53796       -1.68529        2.61317
H         -1.95082        3.78435       -3.05741
H         -2.55275        2.26401       -1.21293
H          2.76039       -2.24866        0.08676
H          2.50853       -4.11208       -1.51210
H         -0.03270        3.25209       -4.50032
H          1.15394       -3.79902       -3.53970
C         -2.70040       -4.16730       -2.15061
C         -3.08004       -2.97028       -2.74193
C         -2.68577       -1.77990       -2.14121
C         -1.92252       -1.79536       -0.99692
C         -1.55689       -2.98570       -0.41437
C         -1.94407       -4.17793       -0.99525
H         -3.00760       -5.09495       -2.60272
C         -3.91557       -2.95928       -3.97334
H         -2.96856       -0.83566       -2.57714
H         -0.98847       -2.97757        0.50082
H         -1.66005       -5.11400       -0.54310
C         -4.89266        1.48755        2.09330
C         -3.72796        2.21707        1.96046
C         -2.67213        1.70149        1.23399
C         -2.78925        0.46784        0.63898
C         -3.94769       -0.26155        0.77218
C         -5.01629        0.23441        1.50931
H         -5.71811        1.88705        2.65752
H         -3.64059        3.18595        2.42423
H         -1.75806        2.25852        1.12008
H         -4.02238       -1.23038        0.30832
C         -6.27448       -0.55004        1.63739
C          6.23053        0.06541        1.43891
C          5.86479        0.19935        0.11393
C          4.52678        0.26514       -0.22939
C          3.56696        0.19769        0.75401
C          3.93159        0.06572        2.07218
C          5.26885       -0.01106        2.43668
H          7.27173        0.02003        1.70945
H          6.62051        0.25383       -0.65245
H          4.22502        0.36408       -1.26040
H          3.16727        0.01999        2.82692
C          5.65592       -0.13054        3.86891
C          0.83680        4.68287       -0.40859
C          1.65229        4.02622       -1.30918
C          1.96947        2.69577       -1.10975
C          1.45827        2.03203       -0.02021
C          0.68158        2.69570        0.90195
C          0.34946        4.03226        0.71601
H          0.57956        5.71633       -0.56705
H          2.03411        4.54680       -2.17206
H          2.60140        2.16723       -1.80473
H          0.36645        2.18179        1.79473
C         -0.51597        4.75129        1.69059
Pd         0.01357       -0.46008        1.55575
C          1.62067        1.16791       -4.37279
C         -0.17609       -1.64861       -4.33542
H          2.24592        0.37033       -3.96974
H          1.29198        0.86864       -5.36879
H          2.24721        2.05470       -4.47921
H         -0.79112       -2.53771       -4.48117
H         -0.84863       -0.79249       -4.27553
H          0.44969       -1.52600       -5.22018
H         -3.66331       -3.79576       -4.62674
H         -4.97477       -3.03390       -3.72322
H         -3.76813       -2.03952       -4.54141
H         -6.06796       -1.62120        1.65298
H         -6.80195       -0.30174        2.55944
H         -6.94425       -0.34795        0.80035
H          6.61908       -0.63116        3.97741
H          5.73310        0.85400        4.33222
H          4.91749       -0.70776        4.42732
H         -0.64890        4.17279        2.60596
H         -0.07801        5.71165        1.96613
H         -1.50323        4.94022        1.26644
