59
-75.81284773
Cl         1.63599        0.53415        2.29762
P          1.59761       -0.04200       -0.86457
P         -1.63363       -0.05397       -0.80408
C          0.57952        0.39566       -2.33912
H          0.32359        1.45704       -2.29348
H          1.18148        0.23852       -3.23961
C         -0.65852       -0.45407       -2.32035
H         -0.39818       -1.51544       -2.29549
H         -1.29316       -0.28884       -3.19690
C          2.50245       -1.61698       -1.25734
H          2.31119       -1.77519       -2.32740
C          3.05340        1.08092       -0.62167
H          3.17356        1.18622        0.46343
C         -2.96384       -1.30508       -0.49563
H         -3.32692       -1.11452        0.52200
C         -2.75555        1.36986       -1.21067
H         -2.27609        1.92798       -2.02411
C          3.98470       -1.25549       -1.05532
H          4.30627       -1.57230       -0.05599
H          4.61556       -1.82220       -1.75671
C          4.22308        0.27014       -1.20564
H          4.33210        0.52263       -2.26946
H          5.17068        0.56988       -0.73246
C         -4.02194       -0.87023       -1.52276
H         -3.78231       -1.34475       -2.48560
H         -5.01287       -1.26102       -1.24332
C         -4.05672        0.67794       -1.69271
H         -4.90145        1.08479       -1.11968
H         -4.26806        0.94390       -2.73905
C          2.01023       -2.82658       -0.46441
H          2.50646       -3.72968       -0.84629
H          0.94479       -2.97370       -0.68401
C          2.87258        2.45432       -1.25683
H          3.83470        2.98520       -1.24215
H          2.63136        2.32593       -2.31994
C         -2.50987       -2.75564       -0.61875
H         -3.39528       -3.40210       -0.69398
H         -1.97912       -2.88730       -1.56958
C         -2.99216        2.28529       -0.01086
H         -3.85116        2.93626       -0.22658
H         -3.30362        1.66926        0.84314
C          2.21885       -2.73491        1.04118
H          1.73746       -3.56089        1.57006
H          1.81225       -1.80944        1.44689
H          3.27599       -2.76111        1.30870
C          1.80924        3.29052       -0.56493
H          0.84138        2.79129       -0.59063
H          1.68662        4.27064       -1.03139
H          2.05608        3.45299        0.48599
C         -1.64402       -3.20314        0.54829
H         -0.76623       -2.56681        0.65672
H         -1.29525       -4.23188        0.43294
H         -2.19198       -3.14493        1.49067
C         -1.79373        3.14098        0.36534
H         -1.45898        3.74586       -0.47942
H         -2.02130        3.82291        1.18788
H         -0.95138        2.52901        0.68432
Cl        -1.57965        0.10568        2.41158
Pd         0.00523        0.07817        0.82383
