171
-217.84869745
P         -1.60392        0.39847       -0.26655
P          1.60256       -0.38755       -0.26190
C         -0.85885        1.36197       -1.58482
C          0.85773       -1.35233       -1.57879
C         -0.08781        0.74325       -2.56251
C          0.53190        1.54436       -3.54074
C          0.33934        2.91592       -3.51468
C         -0.44030        3.50742       -2.54307
C         -1.03433        2.72384       -1.57364
C          1.03379       -2.71404       -1.56434
C          0.44550       -3.49913       -2.53609
C         -0.32949       -2.90927       -3.51251
C         -0.52299       -1.53784       -3.54124
C          0.09152       -0.73512       -2.56107
Cl         1.59971        0.43884        2.91210
Cl        -1.54446       -0.35699        2.99165
C         -1.36811       -0.94124       -4.61158
C          1.38232        0.94625       -4.60600
H         -0.58509        4.57532       -2.53797
H         -1.63857        3.17600       -0.80373
H          1.63371       -3.16444       -0.78986
H          0.59200       -4.56677       -2.52959
H          0.81362        3.52327       -4.26711
H         -0.79933       -3.51789       -4.26668
C         -3.87653       -3.23306       -1.71403
C         -2.90928       -3.39828       -0.73115
C         -2.21673       -2.27139       -0.30548
C         -2.47051       -1.04759       -0.87266
C         -3.41582       -0.90414       -1.85940
C         -4.14846       -2.00197       -2.29646
H         -4.45161       -4.08732       -2.02012
H         -1.48161       -2.33422        0.47803
H         -3.58403        0.07551       -2.27366
C         -4.47306        2.87536        2.23477
C         -4.98466        1.90238        1.38689
C         -4.08365        1.16904        0.62616
C         -2.73499        1.41686        0.70229
C         -2.24866        2.39203        1.53893
C         -3.11238        3.13476        2.33461
H         -5.15368        3.43730        2.84768
H         -4.42903        0.38413       -0.02180
H         -1.18545        2.55145        1.58623
C          4.43568       -2.90657        2.23767
C          3.06877       -3.10804        2.37779
C          2.21530       -2.35377        1.58182
C          2.71831       -1.41650        0.71251
C          4.07306       -1.22069        0.60145
C          4.96343       -1.97137        1.35781
H          5.10927       -3.48701        2.84102
H          1.14837       -2.47413        1.65371
H          4.43243       -0.46410       -0.07197
C          3.90376        3.21607       -1.73457
C          2.93547        3.39512       -0.75508
C          2.23743        2.27545       -0.31991
C          2.48470        1.04548       -0.87629
C          3.42869        0.88889       -1.86228
C          4.16836        1.97878       -2.30735
H          4.48533        4.06405       -2.04569
H          1.50266        2.34927        0.46289
H          3.58897       -0.09422       -2.27136
Pd        -0.00536        0.03923        1.39355
C         -2.40684       -5.80899       -1.23760
C         -2.67137       -4.78436       -0.11802
C         -3.91831       -5.19967        0.68226
C         -1.45641       -4.77809        0.82781
H         -1.55543       -5.50420       -1.84468
H         -2.18935       -6.79264       -0.82172
H         -3.26769       -5.91208       -1.89674
H         -3.77927       -6.17758        1.14283
H         -4.12465       -4.47909        1.47349
H         -4.79752       -5.25240        0.04089
H         -1.26959       -5.77548        1.22566
H         -0.55729       -4.45448        0.30373
H         -1.62477       -4.11246        1.67406
C         -6.62291       -2.15734       -2.63039
C         -5.27924       -1.87955       -3.32856
C         -5.07157       -2.90403       -4.46089
C         -5.33032       -0.46980       -3.94921
H         -6.79019       -1.44903       -1.82004
H         -7.45299       -2.07060       -3.33127
H         -6.64557       -3.16059       -2.20601
H         -4.10957       -2.75725       -4.94910
H         -5.10245       -3.92583       -4.08523
H         -5.84950       -2.80816       -5.21821
H         -5.53922        0.28613       -3.19262
H         -4.38771       -0.21993       -4.43499
H         -6.11721       -0.40648       -4.70068
C         -6.97634        1.17708        2.72246
C         -6.49717        1.64508        1.33646
C         -6.85307        0.55877        0.30259
C         -7.22422        2.94476        0.94468
H         -8.04572        0.96692        2.71565
H         -6.45476        0.26830        3.02224
H         -6.78954        1.93528        3.48207
H         -7.93021        0.39652        0.26601
H         -6.52844        0.84980       -0.69623
H         -6.38560       -0.39258        0.55615
H         -8.30018        2.78454        0.87761
H         -7.05062        3.73308        1.67611
H         -6.87537        3.30343       -0.02356
C         -3.22488        5.54872        3.01158
C         -2.60756        4.17755        3.34153
C         -1.07385        4.31001        3.29954
C         -3.01795        3.74618        4.76150
H         -2.86604        6.31360        3.70008
H         -2.96140        5.85519        1.99936
H         -4.31164        5.52183        3.08099
H         -0.58977        3.36340        3.53958
H         -0.74284        4.63038        2.31316
H         -0.72773        5.05005        4.02087
H         -2.65273        4.45365        5.50567
H         -4.10116        3.68707        4.86029
H         -2.60666        2.76470        4.99698
C          3.03836       -5.52331        3.04922
C          2.54894       -4.11128        3.41683
C          1.00996       -4.12292        3.47221
C          3.07703       -3.71965        4.80970
H          2.67303       -6.26116        3.76332
H          2.68352       -5.80731        2.05856
H          4.12654       -5.57504        3.04231
H          0.61776       -3.13708        3.72204
H          0.59290       -4.43066        2.51529
H          0.65323       -4.82286        4.22757
H          2.69742       -4.39601        5.57530
H          4.16510       -3.75278        4.84681
H          2.76379       -2.70794        5.06694
C          6.85473       -0.70834        0.21749
C          6.48327       -1.77648        1.26467
C          7.14438       -3.10645        0.85853
C          7.02037       -1.32425        2.63475
H          6.42859        0.26040        0.47790
H          7.93599       -0.58637        0.15493
H          6.49644       -0.99054       -0.77228
H          6.75564       -3.45224       -0.09915
H          8.22405       -2.99213        0.76325
H          6.95615       -3.88493        1.59690
H          8.09654       -1.15641        2.59628
H          6.54394       -0.39479        2.94603
H          6.82641       -2.07241        3.40244
C          3.93963        5.19723        0.66034
C          2.70098        4.78752       -0.15516
C          1.47132        4.79907        0.77183
C          2.46159        5.80663       -1.28563
H          3.80345        6.18028        1.11072
H          4.12693        4.48124        1.46042
H          4.82868        5.23576        0.03162
H          1.61980        4.14170        1.62821
H          1.28530        5.80199        1.15590
H          0.57883        4.47603        0.23631
H          2.24347        6.79427       -0.87965
H          3.33385        5.90050       -1.93096
H          1.61834        5.50319       -1.90483
C          5.10787        2.86586       -4.47165
C          5.29954        1.84058       -3.33712
C          5.33371        0.42956       -3.95615
C          6.64490        2.10200       -2.63609
H          4.14497        2.73115       -4.96159
H          5.15203        3.88789       -4.09799
H          5.88592        2.75808       -5.22725
H          5.53282       -0.32820       -3.19882
H          4.38841        0.19079       -4.44227
H          6.12025        0.35577       -4.70703
H          6.67888        3.10523       -2.21237
H          6.80133        1.39224       -1.82480
H          7.47549        2.00436       -3.33493
H         -0.82414       -0.89170       -5.55579
H          2.28070        1.54241       -4.76326
H         -1.68919        0.06824       -4.35144
H         -2.26427       -1.53913       -4.77481
H          0.84417        0.89823       -5.55362
H          1.69960       -0.06402       -4.34427
