105
-153.05860643
Cl         0.30673        3.51882        1.72434
Pd        -0.12266        1.96733        0.14873
P         -0.72557        0.22134       -1.33625
N          0.16063       -1.19261       -1.93295
C          0.25254       -2.50942       -1.49230
C         -0.09307       -2.95730       -0.18731
C          0.22306       -4.28095        0.19223
C          0.07399       -4.69762        1.63783
C         -0.06994       -6.21468        1.82271
C          1.05825       -6.94860        1.09196
C          1.04547       -6.62269       -0.41104
C          0.75173       -5.17739       -0.73999
C          1.01182       -4.73526       -2.02977
C          0.78895       -3.43214       -2.39000
H          1.03649       -3.10145       -3.38394
H          1.41686       -5.42927       -2.74691
H          2.00694       -6.89697       -0.86369
H          2.02226       -6.64874        1.52199
H         -0.08952       -6.48273        2.88859
H          0.95503       -4.34322        2.18632
C         -0.69826       -2.06212        0.83568
C          0.11071       -1.05319        1.42067
C         -0.36740       -0.34579        2.52407
C         -1.62006       -0.59915        3.01947
C         -2.44947       -1.55432        2.43868
C         -3.81055       -1.77760        3.05610
C         -4.73275       -2.73431        2.27866
C         -3.94285       -3.88089        1.63951
C         -2.87326       -3.32489        0.68993
C         -1.99056       -2.29022        1.34219
H         -2.26374       -4.13853        0.28012
H         -4.61273       -4.57660        1.11457
H         -5.25625       -2.17810        1.49195
H         -4.29924       -0.80282        3.18026
H         -1.98257       -0.04243        3.86694
H          0.24652        0.42142        2.95911
N          1.27605       -0.69375        0.75064
P          1.81770        0.92837        0.98043
C          2.91637        1.41105       -0.34620
C          3.41135        0.46136       -1.20773
C          4.17284        0.85361       -2.29358
C          4.43984        2.19743       -2.52063
C          3.91929        3.14091       -1.64437
C          3.15798        2.74739       -0.55886
H          2.71796        3.47389        0.10642
H          4.10177        4.18638       -1.82503
C          5.22606        2.62108       -3.71206
H          4.55683        0.11693       -2.97841
H          3.18990       -0.57975       -1.03779
C          2.63936        1.00608        2.57260
C          3.44480       -0.05097        2.92393
C          4.09935       -0.04138        4.14339
C          3.94399        1.02465        5.01952
C          3.13107        2.08531        4.64265
C          2.47922        2.07174        3.42467
H          1.83557        2.88416        3.13493
H          3.01116        2.92146        5.31021
C          4.66699        1.04757        6.32127
H          4.73528       -0.86430        4.42165
H          3.54975       -0.88185        2.24349
H          1.13863       -0.81751       -0.25175
H          0.38729       -1.01571       -2.90380
C         -0.61028        1.36678       -2.71958
C         -1.72269        1.81242       -3.39228
C         -1.57980        2.70615       -4.43744
C         -0.32179        3.15390       -4.81878
C          0.78833        2.69851       -4.12086
C          0.64266        1.80429       -3.07634
H          1.50220        1.46031       -2.52468
H          1.76716        3.05420       -4.39330
C         -0.17040        4.14173       -5.92260
H         -2.44849        3.06806       -4.96044
H         -2.69904        1.47176       -3.08968
C         -2.45049       -0.23545       -1.18047
C         -2.96493       -1.09785       -2.11908
C         -4.30377       -1.44548       -2.07494
C         -5.13306       -0.93195       -1.08763
C         -4.59403       -0.06206       -0.14880
C         -3.25679        0.28466       -0.19654
H         -2.84029        0.96398        0.52891
H         -5.22792        0.34598        0.61970
C         -6.56991       -1.32014       -1.04017
H         -4.71200       -2.12236       -2.80586
H         -2.31391       -1.49732       -2.88087
Cl        -2.00629        3.06953       -0.39108
H          0.29845       -7.24776       -0.91491
H         -1.03702       -6.53897        1.41821
H          0.98756       -8.03293        1.25775
H         -0.77408       -4.18074        2.09925
H         -3.45843       -4.47245        2.42641
H         -3.35814       -2.86778       -0.17851
H         -3.66387       -2.15980        4.07348
H         -5.52475       -3.12730        2.93159
H          5.98722        1.88136       -3.96405
H          4.57705        2.74547       -4.58001
H          5.73357        3.56989       -3.53263
H          4.80084        0.03896        6.71485
H          5.65369        1.49878        6.20824
H          4.11714        1.62309        7.06727
H         -0.23313        5.16134       -5.54005
H          0.79221        4.02860       -6.42328
H         -0.95108        4.01527       -6.67399
H         -6.67655       -2.39709       -0.90180
H         -7.08981       -0.82514       -0.21884
H         -7.07628       -1.04778       -1.96720
