72
-108.39889549
Cl        -1.79940        0.25416        2.87756
Cl         0.88829       -1.33096        2.67029
P          1.20214       -0.99045       -0.31746
P         -2.20323        0.18305       -0.40357
C         -3.36134       -1.31601       -0.30451
C         -4.05465       -1.30510        1.05490
C         -4.40872       -1.28842       -1.42577
C         -3.13464        1.82561       -0.12218
C         -4.49255        1.78476       -0.81502
C         -1.42009        0.39173       -2.10063
C         -1.32589       -0.85106       -2.96746
C          1.15160        0.33996       -1.55580
C         -0.04940        1.04305       -2.00830
C          0.40003        2.18637       -2.80570
C          1.84872        2.16629       -2.86973
C          2.30930        1.03015       -2.09443
C         -2.51838       -2.58449       -0.41072
H         -3.32825       -1.27063        1.86684
H         -4.72409       -0.45278        1.15754
H         -5.26253       -0.66431       -1.16803
H         -4.80273       -2.28912       -1.61052
C         -3.32404        2.09925        1.36477
H         -4.94820        2.77636       -0.82307
H         -5.18377        1.12474       -0.29408
H         -2.09777        1.09292       -2.60088
H         -2.28006       -1.35344       -3.11179
H         -0.62902       -1.56339       -2.53502
H         -0.93763       -0.60378       -3.95748
H         -0.25119        2.86101       -3.36457
H          2.47999        2.87020       -3.41647
Pd        -0.54454       -0.45103        1.16080
H          3.34714        0.74578       -1.90752
C         -2.30681        2.95426       -0.73284
H         -4.39834        1.45729       -1.85074
H         -2.36511        2.22960        1.86317
H         -3.90025        3.01248        1.52098
H         -3.85105        1.28750        1.86233
H         -2.32806        2.93222       -1.82207
H         -2.68848        3.92925       -0.42456
H         -1.27145        2.88283       -0.41426
H         -4.65603       -2.20617        1.18697
H         -4.00068       -0.91202       -2.36113
H         -3.14843       -3.47302       -0.34315
H         -1.98069       -2.64111       -1.35394
H         -1.79288       -2.64409        0.39974
C          2.89949       -1.06901        0.31441
C          3.41440       -2.13316        1.01189
C          4.73627       -1.81755        1.32571
C          4.97582       -0.57108        0.80222
O          3.85733       -0.10074        0.17707
H          2.88720       -3.03657        1.27130
H          5.43224       -2.43162        1.87357
H          5.90950       -0.02618        0.86753
C          0.80753       -2.63113       -0.94817
C          0.55135       -3.67693       -0.09718
C          0.28742       -4.79464       -0.89002
C          0.39578       -4.38185       -2.19575
O          0.71292       -3.05411       -2.24617
H          0.54955       -3.62313        0.98018
H          0.04668       -5.78676       -0.54475
H          0.25275       -5.00503       -3.06984
Fe         1.21460        2.25864       -0.91532
C          2.85276        2.70335        0.23761
C          1.89317        1.95069        1.01958
C          0.65275        2.69452        1.03207
C          0.84465        3.91334        0.26705
C          2.20937        3.91915       -0.22616
H          3.88940        2.41060        0.05628
H          2.07319        1.00206        1.52927
H         -0.23582        2.40937        1.59679
H          0.11332        4.71359        0.13305
H          2.67689        4.70881       -0.81874
