111
-148.55762319
P         -2.61095        1.87823        1.04738
P          0.17150        0.49843        0.45653
C         -1.47333        1.53325        2.41567
C         -0.23850        0.98368        2.14578
C         -3.54165        3.45751        1.30019
C         -2.99542        4.56794        0.42945
C         -1.83433        1.80910        3.71896
H         -2.80819        2.22112        3.92666
C         -0.95046        1.53970        4.74976
H         -1.23132        1.75447        5.76791
C          0.28906        0.99376        4.47611
H          0.97570        0.78135        5.27898
C          0.64425        0.71019        3.16975
H          1.60038        0.26683        2.94053
Pd        -1.34340        1.66625       -0.86358
Cl        -3.07468        2.39031       -2.08832
Cl         0.01324        1.24774       -2.60693
C         -4.99336        3.04966        0.98725
C         -4.01665        0.68213        0.91135
H         -3.06961        4.30473       -0.62662
H         -3.54820        5.49880        0.57600
H         -1.94190        4.76046        0.64594
H         -5.19459        3.25150       -0.07394
H         -5.69927        3.68152        1.54758
H         -4.06230        0.38759       -0.14581
C         -5.23987        1.54222        1.28163
C         -3.80681       -0.52630        1.79751
H         -3.43858        3.71480        2.36195
H         -5.45481        1.40894        2.35084
H         -6.13548        1.18068        0.75388
H         -2.90803       -1.07487        1.51030
H         -3.68884       -0.22630        2.84038
H         -4.65340       -1.21454        1.74250
C         -1.24907       -3.77984       -0.21057
C         -0.97512       -3.32587        1.10509
C         -0.52259       -2.02792        1.27106
C         -0.40010       -1.18057        0.20177
C         -0.74664       -1.58763       -1.05833
C         -1.22177       -2.86513       -1.29412
O         -1.51537       -5.15496       -0.44574
C         -1.13428       -4.22685        2.33946
H         -0.25605       -1.65857        2.24553
H         -0.63104       -0.88373       -1.86347
C         -1.68485       -3.23331       -2.71212
C          4.61734        0.66314       -0.50227
C          4.07018       -0.47104        0.15044
C          2.71002       -0.48319        0.41016
C          1.92365        0.60069        0.11824
C          2.46637        1.74182       -0.41021
C          3.81835        1.81819       -0.70313
O          5.95156        0.62779       -0.98808
C          4.91375       -1.69356        0.54481
H          2.23810       -1.35416        0.83179
H          1.80918        2.56930       -0.61474
C          4.38475        3.12626       -1.27707
C         -1.44929       -3.38584        3.59789
C         -2.30180       -5.21311        2.15546
C          0.17544       -4.99289        2.57981
C         -2.26464       -1.99260       -3.43117
C         -0.48619       -3.75394       -3.51919
C         -2.80253       -4.29107       -2.67517
C         -0.35901       -5.92406       -0.75177
H         -1.68044       -4.03082        4.44532
H         -0.60382       -2.76522        3.89111
H         -2.30883       -2.73830        3.42800
H         -2.45608       -5.80997        3.05402
H         -3.22602       -4.67746        1.94093
H         -2.11525       -5.89929        1.33300
H          0.09772       -5.63352        3.45788
H          0.42732       -5.61990        1.72803
H          1.00261       -4.30119        2.73826
H         -1.49505       -1.25331       -3.64745
H         -2.71485       -2.27202       -4.38328
H         -3.03415       -1.51665       -2.82385
H          0.29604       -2.99738       -3.57729
H         -0.05550       -4.63996       -3.05870
H         -0.78229       -4.01223       -4.53555
H         -3.63927       -3.94336       -2.07019
H         -3.17372       -4.50419       -3.67729
H         -2.45008       -5.22698       -2.24922
H         -0.45935       -6.35788       -1.74645
H          0.53437       -5.29922       -0.71596
H         -0.26245       -6.73835       -0.03376
C          6.07123        0.12979       -2.31490
C          6.35518       -1.28382        0.89721
C          4.32297       -2.38178        1.79708
C          4.91627       -2.70400       -0.61241
C          4.27587        3.09440       -2.80923
C          3.58874        4.34301       -0.75278
C          5.84969        3.33310       -0.85137
H          6.93435       -2.14162        1.23813
H          6.86933       -0.86087        0.03789
H          6.35840       -0.53580        1.68932
H          4.98705       -3.16787        2.15582
H          4.18662       -1.66415        2.60574
H          3.36173       -2.84828        1.58632
H          3.90090       -3.02303       -0.84707
H          5.34295       -2.27071       -1.51376
H          5.49781       -3.58932       -0.35652
H          3.23770        2.97473       -3.11835
H          4.65522        4.01711       -3.24744
H          4.84204        2.26587       -3.22768
H          4.06495        5.27565       -1.05451
H          2.57387        4.36130       -1.14712
H          3.53518        4.33147        0.33553
H          6.49424        2.55631       -1.25485
H          5.94034        3.31171        0.23412
H          6.22889        4.29162       -1.20481
H          5.08974       -0.13078       -2.71307
H          6.53181        0.88667       -2.94958
H          6.71135       -0.75225       -2.31882
