111
-148.55130237
P         -2.27021        2.32176        1.02281
P         -0.02056        0.14695        0.54736
C         -1.36357        1.64609        2.43644
C         -0.35701        0.73217        2.21828
C         -2.49430        4.14930        1.21801
C         -1.53068        4.93643        0.35696
C         -1.66434        2.04559        3.72287
H         -2.46098        2.75223        3.88913
C         -0.94802        1.52925        4.78900
H         -1.18245        1.83948        5.79420
C          0.06688        0.61829        4.56650
H          0.62457        0.21649        5.39639
C          0.36275        0.21713        3.27595
H          1.14433       -0.50153        3.08392
Pd        -1.30269        1.45018       -0.88630
Cl        -2.32126        3.01700       -2.11767
Cl        -0.10168        0.50439       -2.54065
C         -3.98324        4.34485        0.88070
C         -4.03939        1.78451        0.93911
H         -0.49364        4.68894        0.59515
H         -1.68407        4.71772       -0.69990
H         -1.66261        6.01247        0.49150
H         -4.07687        4.55096       -0.19451
H         -4.37909        5.23700        1.38955
H         -4.21084        1.47144       -0.09955
C         -4.81561        3.08058        1.24109
C         -4.30932        0.64289        1.89564
H         -2.31773        4.36539        2.27959
H         -5.06743        3.10124        2.31024
H         -5.78021        3.08175        0.71126
H         -3.67911       -0.22025        1.66809
H         -4.09696        0.93989        2.92423
H         -5.35292        0.32256        1.85189
C         -1.20867       -4.23444        0.11238
C         -1.50111       -3.54329        1.31630
C         -1.11395       -2.21777        1.42202
C         -0.54036       -1.56049        0.36456
C         -0.37908       -2.19021       -0.84138
C         -0.72320       -3.51939       -1.01156
O         -1.36912       -5.64389        0.04073
C         -2.19980       -4.21312        2.51003
H         -1.24831       -1.68053        2.34396
H          0.01605       -1.61533       -1.65929
C         -0.53559       -4.17153       -2.39019
C          4.24564        0.88776       -0.84512
C          3.79437       -0.44559       -0.66926
C          2.49547       -0.64546       -0.23404
C          1.68505        0.41285        0.08212
C          2.14967        1.69993        0.01550
C          3.44086        1.97106       -0.40720
O          5.48252        1.13742       -1.49697
C          4.66587       -1.66772       -0.99779
H          2.08913       -1.63843       -0.15848
H          1.47537        2.49725        0.27909
C          3.92201        3.42994       -0.43275
C         -3.04111       -3.18194        3.29687
C         -3.16843       -5.31425        2.04146
C         -1.14056       -4.80427        3.45240
C         -1.60622       -5.24858       -2.64129
C         -0.67622       -3.12211       -3.51658
C          0.86833       -4.78982       -2.47312
C         -0.21957       -6.37858        0.44224
H         -2.41498       -2.44355        3.79542
H         -3.72915       -2.65785        2.63423
H         -3.63140       -3.67378        4.06968
H         -3.89493       -4.91121        1.33664
H         -2.63929       -6.12490        1.54701
H         -3.71306       -5.74150        2.88308
H         -1.60704       -5.28167        4.31377
H         -0.53193       -5.54841        2.94414
H         -0.47296       -4.02468        3.81876
H         -1.51837       -6.06764       -1.93166
H         -2.60562       -4.82627       -2.54224
H         -1.51268       -5.66834       -3.64253
H         -0.67410       -3.60180       -4.49500
H         -1.60942       -2.56845       -3.41727
H          0.14739       -2.40966       -3.50912
H          1.63306       -4.02857       -2.32306
H          1.00889       -5.55398       -1.71268
H          1.03603       -5.24919       -3.44691
H          0.09744       -7.03210       -0.37036
H          0.59410       -5.70047        0.70287
H         -0.46384       -7.00066        1.30304
C          5.37178        1.28859       -2.90687
C          6.15215       -1.38027       -0.71892
C          4.26776       -2.87595       -0.11919
C          4.46617       -2.04999       -2.47245
C          3.54615        4.06197       -1.78180
C          3.25032        4.24403        0.69683
C          5.44184        3.52104       -0.20579
H          6.76217       -2.26608       -0.89414
H          6.53053       -0.58846       -1.36054
H          6.29512       -1.06886        0.31527
H          3.27595       -3.24919       -0.36989
H          4.96410       -3.70234       -0.25998
H          4.27688       -2.60706        0.93674
H          5.04953       -2.93368       -2.72978
H          3.41756       -2.26543       -2.67563
H          4.77024       -1.24271       -3.13401
H          4.01196        3.53210       -2.60914
H          2.46758        4.02939       -1.93470
H          3.86278        5.10360       -1.82736
H          3.68272        5.24209        0.76404
H          2.18280        4.37035        0.52377
H          3.38631        3.75445        1.66080
H          5.76974        4.55928       -0.16080
H          5.99357        3.03705       -1.00749
H          5.71945        3.03669        0.72978
H          6.00166        0.55103       -3.40399
H          4.33614        1.15583       -3.22269
H          5.71619        2.28070       -3.19801
