45
-71.81832934
C          0.38467        0.50623        2.45508
P          0.96997        0.59639        0.72789
P         -1.58267        0.38398       -1.01850
C         -2.36908        0.11903       -2.64341
Cl         1.40562       -2.59115        0.66047
H          0.70046        1.38847        3.00426
H         -1.63594        0.25134       -3.43392
Cl        -0.97033       -2.72736       -1.70109
C          0.36002        2.07583       -0.09882
C         -0.76374        1.98496       -0.88860
C         -1.26364        3.10737       -1.51677
C         -0.62141        4.32316       -1.35956
C          0.51123        4.41214       -0.57277
C          1.00385        3.28544        0.06183
H         -2.15361        3.02813       -2.11936
H         -1.00705        5.20177       -1.85001
H          1.01070        5.35920       -0.45124
H          1.88564        3.33817        0.67967
Pd         0.00135       -1.19642       -0.38817
H         -3.17971        0.82776       -2.78636
H          0.79251       -0.37851        2.93566
H         -2.76888       -0.88942       -2.69899
C         -4.42505       -0.25820        2.46618
C         -4.11653       -1.30673        1.62146
C         -3.26197       -1.10039        0.55401
C         -2.73051        0.14996        0.33762
C         -3.02613        1.19621        1.18038
C         -3.88007        0.99262        2.24923
H         -5.08956       -0.41758        3.29963
H         -4.53393       -2.28467        1.79639
H         -2.98019       -1.91075       -0.09999
H         -2.58460        2.16341        1.00223
H         -4.11702        1.80829        2.91239
C          5.49942        0.36329        0.35277
C          4.69380       -0.04761       -0.69062
C          3.31763        0.02467       -0.56843
C          2.75800        0.50020        0.59567
C          3.55711        0.91655        1.63646
C          4.93351        0.84702        1.51577
H          6.57164        0.30631        0.25926
H          5.13476       -0.42595       -1.59819
H          2.67638       -0.29071       -1.37637
H          3.10402        1.29521        2.53842
H          5.56248        1.16954        2.32924
H         -0.69970        0.44924        2.47637
