111
-148.55051438
P         -2.19153        2.13627        1.36348
P          0.18756        0.15730        0.67970
C         -1.16858        1.45960        2.69767
C         -0.13039        0.60521        2.39598
C         -2.32709        3.97480        1.52721
C         -1.67464        4.67818        0.35724
C         -1.41131        1.81201        4.00998
H         -2.20762        2.50147        4.23767
C         -0.62515        1.28802        5.02144
H         -0.81620        1.56031        6.04662
C          0.40356        0.41731        4.71800
H          1.01401        0.00630        5.50518
C          0.65223        0.07602        3.40065
H          1.45061       -0.60358        3.15000
Pd        -1.41593        1.22374       -0.61473
Cl        -2.91030        2.50180       -1.69007
Cl        -0.54523        0.23395       -2.42963
C         -3.84726        4.21892        1.65156
C         -3.98244        1.67061        1.42262
H         -1.71631        5.76434        0.46817
H         -0.62621        4.38801        0.25370
H         -2.17975        4.42472       -0.57557
H         -4.11454        5.13600        1.10714
H         -4.11018        4.41486        2.70136
H         -4.14671        0.94765        0.61172
C         -4.68098        3.01401        1.12941
C         -4.36232        1.06897        2.75870
H         -1.80984        4.23665        2.46048
H         -5.68606        3.01308        1.57641
H         -4.83629        3.12237        0.04575
H         -4.26071        1.80670        3.55615
H         -5.39894        0.72371        2.76341
H         -3.72058        0.22272        3.01114
C         -1.26310       -4.01166       -0.40276
C         -2.01537       -3.20778        0.49238
C         -1.52877       -1.95001        0.81129
C         -0.31332       -1.52560        0.34022
C          0.46630       -2.34035       -0.43745
C          0.03993       -3.60862       -0.79283
O         -1.83397       -5.19046       -0.95163
C         -3.36750       -3.65211        1.07073
H         -2.10791       -1.26856        1.41096
H          1.40461       -1.95593       -0.79679
C          0.96727       -4.49446       -1.63875
C          4.37933        0.99659       -0.90092
C          4.19985        0.02751        0.12209
C          2.91402       -0.21398        0.57890
C          1.85126        0.52489        0.12626
C          2.04297        1.55311       -0.75981
C          3.29844        1.84034       -1.26808
O          5.60568        1.06384       -1.61085
C          5.35382       -0.75868        0.76803
H          2.72882       -1.00468        1.28571
H          1.18724        2.12250       -1.08025
C          3.42991        3.04859       -2.21016
C         -3.43978       -5.18277        1.21916
C         -3.57471       -3.05651        2.48106
C         -4.49588       -3.15376        0.15469
C          2.44788       -4.20900       -1.29946
C          0.72383       -5.98796       -1.35602
C          0.73670       -4.19106       -3.12691
C         -2.54736       -4.97113       -2.16248
H         -2.61454       -5.54830        1.82932
H         -4.37287       -5.48682        1.69287
H         -3.38545       -5.67914        0.25375
H         -4.46982       -3.46711        2.94777
H         -2.72592       -3.28218        3.12607
H         -3.70036       -1.97658        2.44537
H         -4.47357       -2.06725        0.07201
H         -4.39824       -3.56300       -0.84824
H         -5.47180       -3.44287        0.54371
H          2.75021       -3.21157       -1.61495
H          2.62140       -4.29892       -0.22755
H          3.10462       -4.91653       -1.80513
H          1.42746       -6.61098       -1.90760
H          0.84165       -6.20147       -0.29417
H         -0.27937       -6.28899       -1.64689
H          0.93028       -3.13989       -3.33959
H          1.39556       -4.79036       -3.75470
H         -0.28949       -4.40289       -3.41766
H         -2.11786       -5.58227       -2.95616
H         -3.58935       -5.26303       -2.03289
H         -2.49794       -3.91904       -2.44643
C          5.64059        0.19132       -2.72813
C          6.73097       -0.15669        0.43845
C          5.20121       -0.71858        2.30466
C          5.30685       -2.22111        0.29635
C          2.80592        2.70079       -3.57216
C          2.67966        4.25686       -1.60642
C          4.89314        3.48051       -2.40777
H          6.95583       -0.24315       -0.62188
H          6.76114        0.90017        0.70111
H          7.52378       -0.66624        0.98560
H          5.15692        0.31072        2.65950
H          4.29749       -1.22772        2.63520
H          6.04518       -1.20629        2.79184
H          4.36251       -2.68771        0.57350
H          5.40805       -2.29026       -0.78508
H          6.11144       -2.80171        0.74686
H          3.32127        1.86374       -4.03891
H          1.75800        2.42369       -3.46087
H          2.85844        3.54972       -4.25319
H          2.82770        5.14893       -2.21449
H          1.60693        4.08035       -1.54853
H          3.04168        4.47129       -0.60131
H          4.95696        4.39241       -3.00102
H          5.46471        2.71249       -2.92341
H          5.37238        3.66504       -1.44699
H          4.84693        0.44824       -3.42769
H          6.60526        0.28462       -3.22736
H          5.50092       -0.83849       -2.40353
