171
-217.84888579
P         -1.61496        0.38922       -0.24978
P          1.61267       -0.40131       -0.25687
C         -0.86618        1.34739       -1.57046
C          0.86003       -1.36880       -1.56869
C         -0.09583        0.72545       -2.54654
C          0.52243        1.52275       -3.52873
C          0.32905        2.89425       -3.50847
C         -0.45028        3.48916       -2.53872
C         -1.04268        2.70922       -1.56534
C          1.03909       -2.73026       -1.55838
C          0.44162       -3.51583       -2.52410
C         -0.34515       -2.92696       -3.49151
C         -0.54080       -1.55589       -3.51728
C          0.08255       -0.75289       -2.54297
Cl         1.59447        0.31803        2.93921
Cl        -1.58590       -0.31683        2.94831
C         -1.39696       -0.95951       -4.57892
C          1.37111        0.91985       -4.59271
H         -0.59663        4.55686       -2.53847
H         -1.64707        3.16436       -0.79735
H          1.64974       -3.18077       -0.79270
H          0.58973       -4.58330       -2.51966
H          0.80196        3.49864       -4.26412
H         -0.82191       -3.53578       -4.24117
C         -3.90861       -3.22230       -1.71486
C         -2.93373       -3.39987       -0.74168
C         -2.23660       -2.27872       -0.30849
C         -2.49239       -1.04839       -0.86038
C         -3.44297       -0.89328       -1.84029
C         -4.18113       -1.98494       -2.28351
H         -4.48884       -4.07177       -2.02442
H         -1.49472       -2.35198        0.46768
H         -3.60996        0.09035       -2.24553
C         -4.46055        2.91934        2.22465
C         -4.98340        1.95412        1.37485
C         -4.09008        1.20093        0.62449
C         -2.73762        1.42328        0.71152
C         -2.23982        2.39089        1.55005
C         -3.09591        3.15075        2.33793
H         -5.13581        3.49879        2.82710
H         -4.44511        0.42126       -0.02445
H         -1.17407        2.52997        1.60528
C          4.47915       -2.88110        2.24309
C          3.11895       -3.14587        2.33557
C          2.25588       -2.40197        1.54002
C          2.74296       -1.42224        0.70926
C          4.09110       -1.16969        0.63988
C          4.99128       -1.90321        1.40130
H          5.15881       -3.44201        2.85799
H          1.19253       -2.56204        1.58419
H          4.43669       -0.38040       -0.00264
C          3.89509        3.20811       -1.74401
C          2.92584        3.38765       -0.76558
C          2.23063        2.26752       -0.32665
C          2.48354        1.03606       -0.87732
C          3.42999        0.87852       -1.86079
C          4.16538        1.96934       -2.31066
H          4.47279        4.05716       -2.05947
H          1.49314        2.34216        0.45356
H          3.59672       -0.10661       -2.26253
Pd         0.00175       -0.00960        1.38965
C         -2.45639       -5.80880       -1.28133
C         -2.69140       -4.79310       -0.14681
C         -3.92362       -5.20854        0.67555
C         -1.45595       -4.80348        0.77217
H         -1.61880       -5.50086       -1.90593
H         -2.23166       -6.79653       -0.87920
H         -3.33292       -5.90452       -1.92056
H         -3.78160       -6.19228        1.12261
H         -4.10800       -4.49512        1.47859
H         -4.81653       -5.24824        0.05239
H         -1.26508       -5.80677        1.15286
H         -0.56779       -4.47710        0.23154
H         -1.60061       -4.14823        1.63082
C         -6.65865       -2.12094       -2.60075
C         -5.31814       -1.84916       -3.30714
C         -5.12642       -2.86899       -4.44654
C         -5.36283       -0.43600       -3.92054
H         -6.68522       -3.12623       -2.18141
H         -6.81500       -1.41580       -1.78548
H         -7.49316       -2.02466       -3.29509
H         -4.16763       -2.72580       -4.94208
H         -5.16117       -3.89263       -4.07630
H         -5.90987       -2.76387       -5.19690
H         -4.42104       -0.19047       -4.41021
H         -6.15330       -0.36353       -4.66740
H         -5.56229        0.31777       -3.15933
C         -7.00837        1.28993        2.69312
C         -6.50062        1.73017        1.30814
C         -6.86808        0.63963        0.28294
C         -7.19248        3.04126        0.89160
H         -8.08200        1.10346        2.67433
H         -6.51133        0.37349        3.01071
H         -6.81505        2.05297        3.44621
H         -7.94792        0.49916        0.23666
H         -6.52729        0.91238       -0.71562
H         -6.42281       -0.31797        0.55241
H         -8.27106        2.90534        0.81376
H         -7.00868        3.83451        1.61519
H         -6.82411        3.37940       -0.07681
C         -3.14209        5.57345        2.98721
C         -2.58048        4.18617        3.34707
C         -1.04257        4.26447        3.34288
C         -3.03992        3.78554        4.76124
H         -2.77663        6.33324        3.67786
H         -2.84130        5.86027        1.97963
H         -4.23069        5.58272        3.02689
H         -0.59850        3.30201        3.59688
H         -0.67633        4.56960        2.36436
H         -0.68838        4.99454        4.07041
H         -2.66605        4.48710        5.50672
H         -4.12650        3.76772        4.83560
H         -2.67079        2.79227        5.01627
C          3.24806       -5.55930        3.01299
C          2.61430       -4.19407        3.33691
C          1.08269       -4.34184        3.27901
C          3.00633       -3.75913        4.76090
H          2.88855       -6.32798        3.69688
H          2.99877       -5.86747        1.99770
H          4.33367       -5.52275        3.09477
H          0.58650       -3.40103        3.51705
H          0.76559       -4.66245        2.28816
H          0.73677       -5.08768        3.99446
H          2.64198       -4.47110        5.50120
H          4.08786       -3.68800        4.86975
H          2.58201       -2.78241        4.99300
C          6.86049       -0.55418        0.32543
C          6.50294       -1.63950        1.35973
C          7.23843       -2.93673        0.97547
C          6.97101       -1.16630        2.74770
H          6.38902        0.39633        0.57466
H          7.93730       -0.38869        0.29369
H          6.54145       -0.84844       -0.67424
H          8.31388       -2.77128        0.91321
H          7.06538       -3.72377        1.70840
H          6.89618       -3.30004        0.00660
H          8.03945       -0.95135        2.74739
H          6.44339       -0.25924        3.04207
H          6.78253       -1.92373        3.50768
C          3.92896        5.20106        0.63631
C          2.68816        4.78193       -0.17131
C          1.46341        4.79254        0.76184
C          2.43922        5.79452       -1.30550
H          3.79038        6.18548        1.08294
H          4.12352        4.48959        1.43869
H          4.81481        5.24098        0.00318
H          1.61921        4.13791        1.61902
H          1.27634        5.79596        1.14411
H          0.56896        4.46526        0.23219
H          2.21884        6.78319       -0.90330
H          3.30810        5.88877       -1.95534
H          1.59448        5.48458       -1.91933
C          5.09194        2.84278       -4.48569
C          5.29645        1.83188       -3.34061
C          5.34432        0.41457       -3.94404
C          6.64040        2.11530       -2.64532
H          4.13110        2.69072       -4.97450
H          5.12267        3.86904       -4.12238
H          5.87150        2.73721       -5.24003
H          5.55098       -0.33265       -3.17824
H          4.40119        0.16128       -4.42713
H          6.13130        0.34018       -4.69440
H          6.66514        3.12375       -2.23356
H          6.80576        1.41686       -1.82607
H          7.47059        2.01794       -3.34468
H         -2.29610       -1.55602       -4.73043
H          2.27009        1.51427       -4.75286
H         -0.86372       -0.91244       -5.52938
H         -1.71314        0.05104       -4.31694
H          0.83186        0.86880       -5.53956
H          1.68760       -0.08981       -4.32769
