111
-148.55404327
P         -2.60555        2.00591        0.80369
P          0.14920        0.46613        0.44379
C         -1.50302        1.77859        2.22716
C         -0.28367        1.15878        2.05342
C         -3.50991        3.61890        0.87354
C         -2.91074        4.63613       -0.07283
C         -1.87813        2.21716        3.48095
H         -2.84056        2.68218        3.61746
C         -1.02436        2.04213        4.55650
H         -1.31681        2.38491        5.53558
C          0.19949        1.42626        4.37798
H          0.86264        1.28736        5.21591
C          0.56847        0.97756        3.12275
H          1.51148        0.47624        2.96973
Pd        -1.28266        1.54276       -1.02384
Cl        -2.92380        2.27282       -2.36547
Cl         0.02065        0.75873       -2.68499
C         -4.95774        3.20782        0.54782
C         -4.03067        0.82723        0.74894
H         -2.95518        4.28135       -1.10324
H         -3.44742        5.58669       -0.02922
H         -1.86111        4.82727        0.16279
H         -5.11544        3.30307       -0.53545
H         -5.66965        3.90650        1.01324
H         -4.04982        0.42193       -0.27172
C         -5.24687        1.74302        0.98523
C         -3.87069       -0.28213        1.76548
H         -3.43979        3.97190        1.91009
H         -5.50074        1.72427        2.05404
H         -6.13180        1.34566        0.46528
H         -2.97413       -0.87252        1.56733
H         -3.77808        0.12654        2.77346
H         -4.72836       -0.95875        1.75757
C         -1.20573       -3.88221        0.25691
C         -1.02662       -3.25674        1.51763
C         -0.59413       -1.94135        1.54287
C         -0.41809       -1.23347        0.38318
C         -0.69378       -1.80256       -0.83102
C         -1.12499       -3.11242       -0.93097
O         -1.42771       -5.28313        0.18409
C         -1.26789       -3.99216        2.84513
H         -0.38427       -1.44936        2.47600
H         -0.55133       -1.20191       -1.71138
C         -1.46428       -3.67610       -2.31906
C          4.55790        0.73741       -0.66866
C          3.82061       -0.44318       -0.94853
C          2.48109       -0.47261       -0.60197
C          1.89230        0.57318        0.05898
C          2.62639        1.66849        0.43199
C          3.97488        1.76145        0.12566
O          5.84062        0.92483       -1.24462
C          4.41323       -1.69750       -1.61277
H          1.87266       -1.32146       -0.86232
H          2.13007        2.46055        0.96682
C          4.75838        2.96229        0.68307
C         -1.68975       -3.00022        3.95332
C         -2.40545       -5.02021        2.70714
C          0.02813       -4.69124        3.28218
C         -2.01388       -2.56019       -3.23815
C         -0.19069       -4.25342       -2.95553
C         -2.55444       -4.75896       -2.22913
C         -0.23649       -6.05189        0.07187
H         -0.87835       -2.32562        4.22242
H         -2.54299       -2.40206        3.63531
H         -1.97568       -3.53296        4.85997
H         -2.62077       -5.49729        3.66291
H         -3.31713       -4.53842        2.35526
H         -2.14767       -5.80398        1.99905
H         -0.10861       -5.20947        4.23097
H          0.35007       -5.42190        2.54421
H          0.83342       -3.96740        3.40549
H         -2.38104       -2.97664       -4.17574
H         -2.83959       -2.03470       -2.75906
H         -1.24656       -1.83072       -3.49267
H          0.57306       -3.48245       -3.05516
H          0.22575       -5.05397       -2.34863
H         -0.39693       -4.65423       -3.94757
H         -2.83850       -5.11237       -3.22002
H         -2.21415       -5.61918       -1.65838
H         -3.44551       -4.36590       -1.74074
H          0.63986       -5.40312        0.10254
H         -0.18721       -6.76919        0.89102
H         -0.24442       -6.60677       -0.86604
C          5.78581        1.55288       -2.51463
C          5.95139       -1.69707       -1.59399
C          3.95184       -2.95594       -0.84278
C          3.91371       -1.78890       -3.06433
C          6.28104        2.75299        0.60930
C          4.37497        4.23054       -0.09694
C          4.40366        3.15953        2.17395
H          6.34938       -2.63402       -1.98294
H          6.35293       -0.89121       -2.20370
H          6.32313       -1.56465       -0.57854
H          4.42652       -3.85151       -1.24291
H          4.21453       -2.87920        0.21192
H          2.87530       -3.10362       -0.91234
H          4.28919       -2.68930       -3.54981
H          2.82505       -1.81684       -3.09987
H          4.24147       -0.93137       -3.64848
H          6.62366        2.70707       -0.42166
H          6.81394        3.56881        1.09719
H          6.56485        1.82121        1.09725
H          4.89917        5.10194        0.29462
H          4.62510        4.13499       -1.15168
H          3.30484        4.42259       -0.02591
H          4.59103        2.24605        2.73769
H          3.35815        3.43084        2.30995
H          5.00432        3.95516        2.61403
H          5.17679        0.96255       -3.19710
H          5.34677        2.54477       -2.42277
H          6.79551        1.64156       -2.91610
