59
-75.79905648
Cl         1.57997        0.97253        2.26988
P          1.63940        0.02901       -0.80719
P         -1.53129       -0.13037       -0.85022
C          0.69312        0.59483       -2.28622
H          0.44251        1.64966       -2.14812
H          1.33871        0.51940       -3.16654
C         -0.54821       -0.24363       -2.41604
H         -0.28764       -1.29074       -2.58515
H         -1.17805        0.07177       -3.25387
C          2.27773       -1.68169       -1.13427
H          1.91788       -1.92731       -2.14192
C          3.25263        0.91059       -0.60389
H          3.45573        0.92731        0.47396
C         -2.38431       -1.68970       -0.31631
H         -1.88538       -2.03040        0.59977
C         -2.99654        0.97924       -1.08750
H         -2.95135        1.34758       -2.12013
C          3.81182       -1.51962       -1.15552
H          4.23478       -1.91712       -0.22546
H          4.24930       -2.13702       -1.95435
C          4.23777       -0.03400       -1.31467
H          4.27025        0.22906       -2.38130
H          5.26028        0.12647       -0.93939
C         -3.81554       -1.20057       -0.01685
H         -4.53517       -2.01686       -0.16934
H         -3.89870       -0.92816        1.04588
C         -4.19375        0.02736       -0.88901
H         -5.03207        0.57790       -0.43773
H         -4.56159       -0.32063       -1.86557
C          1.73797       -2.69007       -0.12015
H          2.01667       -3.70501       -0.43646
H          0.64016       -2.66702       -0.15910
C          3.23125        2.33242       -1.15096
H          4.25927        2.71930       -1.18616
H          2.89735        2.30713       -2.19624
C         -2.30132       -2.77683       -1.38281
H         -2.80368       -2.41889       -2.29112
H         -1.25126       -2.92089       -1.66883
C         -2.98724        2.15896       -0.12302
H         -3.95142        2.68294       -0.18315
H         -2.93280        1.77340        0.90289
C          2.19782       -2.45869        1.31438
H          3.26172       -2.66336        1.44101
H          1.66546       -3.09998        2.02074
H          2.03447       -1.42701        1.62567
C          2.35295        3.26548       -0.33253
H          2.70670        3.33688        0.69771
H          1.32621        2.90279       -0.28840
H          2.32854        4.27675       -0.74468
C         -2.88803       -4.10949       -0.93768
H         -2.39624       -4.47226       -0.03304
H         -2.77598       -4.88083       -1.70319
H         -3.95272       -4.02908       -0.71424
C         -1.85171        3.13519       -0.38356
H         -1.85648        3.96901        0.32208
H         -0.88383        2.64229       -0.29906
H         -1.91168        3.55337       -1.39014
Cl        -1.65087        0.32045        2.32492
Pd         0.01876        0.25065        0.83087
