105
-153.06964984
Cl        -0.02842        1.87641        3.05622
Pd        -0.60310        1.14974        1.00026
P         -1.24399        0.53262       -1.15261
N         -0.90006       -1.02000       -1.89626
C          0.11417       -1.93988       -1.61010
C          0.33373       -2.46577       -0.30848
C          1.33091       -3.44675       -0.12132
C          1.52499       -4.03947        1.25537
C          2.79948       -4.88315        1.42171
C          3.01966       -5.79632        0.21326
C          3.14219       -4.96628       -1.07223
C          2.07699       -3.90769       -1.20990
C          1.82858       -3.39210       -2.47488
C          0.86613       -2.43843       -2.67377
H          0.68571       -2.05143       -3.66152
H          2.40901       -3.75107       -3.30796
H          4.12444       -4.48090       -1.10704
H          3.90600       -6.43035        0.35800
H          3.66442       -4.21717        1.53307
H          1.53102       -3.22690        1.99027
C         -0.60892       -2.17421        0.80122
C         -0.13709       -1.56362        1.99819
C         -1.00396       -1.47730        3.09194
C         -2.28932       -1.94411        3.01204
C         -2.76958       -2.54133        1.85354
C         -4.18518       -3.06235        1.85957
C         -4.46155       -4.10928        0.77086
C         -3.90303       -3.64925       -0.57816
C         -2.38862       -3.39575       -0.49716
C         -1.93048       -2.66234        0.74270
H         -1.85101       -4.34991       -0.55018
H         -4.41205       -2.72768       -0.88659
H         -5.53769       -4.32097        0.69548
H         -4.87143       -2.21555        1.74412
H         -2.94593       -1.85116        3.86055
H         -0.65630       -1.00229        3.99253
N          1.13816       -0.98861        2.09944
P          1.56261        0.20931        0.87927
C          2.67272       -0.38826       -0.38478
C          2.55561        0.10508       -1.65962
C          3.45171       -0.29505       -2.63376
C          4.47432       -1.18402       -2.32761
C          4.59517       -1.64178       -1.02210
C          3.69466       -1.24288       -0.05070
H          3.78136       -1.59152        0.96612
H          5.39908       -2.31247       -0.77133
C          5.44422       -1.62027       -3.36938
H          3.35843        0.07978       -3.63856
H          1.76078        0.79516       -1.88408
C          2.39675        1.64059        1.57443
C          3.18717        1.51790        2.69137
C          3.82951        2.63194        3.20075
C          3.69266        3.86997        2.58672
C          2.89201        3.97070        1.45690
C          2.25102        2.85616        0.94801
H          1.62980        2.93081        0.06883
H          2.76965        4.92817        0.98006
C          4.35721        5.07561        3.15432
H          4.44035        2.54642        4.08318
H          3.30249        0.55391        3.15954
H          1.32851       -0.53238        2.98226
H         -1.17272       -0.90620       -2.86415
C         -0.51497        1.88372       -2.08243
C          0.10570        1.65778       -3.28814
C          0.69942        2.70853       -3.96292
C          0.67263        3.99264       -3.43518
C          0.01473        4.20654       -2.23160
C         -0.57799        3.15424       -1.55989
H         -1.10350        3.31546       -0.63163
H         -0.03178        5.20220       -1.82461
C          1.29793        5.12766       -4.16863
H          1.19257        2.53592       -4.90432
H          0.14186        0.65872       -3.68959
C         -3.02775        0.70649       -1.21730
C         -3.61050        1.55307       -2.13025
C         -4.98751        1.67450       -2.17376
C         -5.78889        0.94328       -1.30734
C         -5.18040        0.09946       -0.38859
C         -3.80333       -0.02094       -0.34953
H         -3.32373       -0.67044        0.36318
H         -5.79253       -0.45746        0.29968
C         -7.26991        1.09536       -1.33056
H         -5.44861        2.34351       -2.88010
H         -2.98706        2.11985       -2.80275
Cl        -2.54743        2.26972        1.19425
H          3.10885       -5.62171       -1.95202
H          2.76024       -5.47030        2.35011
H          2.17295       -6.48828        0.12133
H          0.64461       -4.64665        1.49711
H         -4.13231       -4.38430       -1.36266
H         -2.06920       -2.83235       -1.38012
H         -4.40464       -3.48094        2.85023
H         -3.99281       -5.06065        1.05257
H          6.38689       -1.08004       -3.27218
H          5.65596       -2.68707       -3.28293
H          5.05539       -1.44073       -4.37268
H          4.59839        5.79721        2.37253
H          3.70852        5.56895        3.87936
H          5.28746        4.81180        3.65936
H          0.57840        5.59855       -4.83978
H          1.66254        5.88914       -3.47772
H          2.14598        4.79083       -4.76652
H         -7.62397        1.35573       -2.32900
H         -7.76519        0.16938       -1.03491
H         -7.58842        1.88141       -0.64460
