111
-148.54940495
P         -2.63446        1.91026        0.14095
P          0.18493        0.44908        0.43253
C         -1.77718        1.87831        1.74399
C         -0.53824        1.28465        1.85440
C         -3.67836        3.43648        0.00826
C         -3.39663        4.20654       -1.26264
C         -2.37003        2.43526        2.85981
H         -3.34813        2.87995        2.77861
C         -1.71525        2.40452        4.07904
H         -2.17897        2.84035        4.94891
C         -0.47156        1.81252        4.18368
H          0.03676        1.78479        5.13343
C          0.11623        1.24494        3.06776
H          1.07803        0.76056        3.13543
Pd        -1.03721        1.19533       -1.38137
Cl        -2.49055        1.80532       -2.97562
Cl         0.59041        0.52250       -2.77342
C         -5.11467        2.87899        0.09638
C         -3.93642        0.60174       -0.00517
H         -3.66103        3.61210       -2.13790
H         -3.97608        5.13160       -1.30904
H         -2.33824        4.46396       -1.34561
H         -5.79232        3.51782       -0.48868
H         -5.47631        2.93702        1.13354
H         -3.62645       -0.06553       -0.82140
C         -5.19437        1.40535       -0.39325
C         -4.07105       -0.17460        1.28678
H         -3.43941        4.05793        0.88156
H         -6.08741        0.90908        0.01382
H         -5.32052        1.39339       -1.48594
H         -3.12765       -0.65162        1.56058
H         -4.35415        0.48799        2.10674
H         -4.83336       -0.95364        1.21029
C         -1.41435       -3.81327        0.38277
C         -0.92248       -3.23052       -0.81290
C         -0.42176       -1.94257       -0.75224
C         -0.33760       -1.26664        0.43639
C         -0.70559       -1.86868        1.61102
C         -1.20912       -3.15888        1.62489
O         -2.15604       -5.02326        0.33112
C         -0.98903       -3.93641       -2.17554
H         -0.11921       -1.42767       -1.64710
H         -0.62232       -1.30207        2.52173
C         -1.56841       -3.80553        2.97176
C          4.69994        0.95400        0.10014
C          3.90981        2.00838        0.62471
C          2.54277        1.81231        0.73600
C          1.95710        0.65119        0.30236
C          2.70344       -0.32811       -0.29846
C          4.07241       -0.18980       -0.45586
O          6.11715        1.03122        0.15740
C          4.51914        3.33894        1.09400
H          1.91117        2.56736        1.17137
H          2.19580       -1.20793       -0.65315
C          4.84926       -1.27306       -1.22063
C         -2.30584       -3.56060       -2.87233
C          0.18847       -3.49627       -3.07488
C         -0.88509       -5.46424       -2.01997
C         -3.01575       -3.44608        3.34128
C         -1.39963       -5.33475        2.91623
C         -0.63237       -3.28996        4.08848
C         -3.55622       -4.83266        0.16847
H         -2.38114       -4.03762       -3.84908
H         -3.16577       -3.86636       -2.28089
H         -2.37033       -2.48232       -3.01738
H          0.20872       -4.07669       -3.99691
H          0.11251       -2.44812       -3.35971
H          1.13935       -3.64605       -2.56528
H         -0.86773       -5.95671       -2.99191
H          0.02565       -5.73422       -1.48644
H         -1.72819       -5.86554       -1.46357
H         -3.71427       -3.79190        2.58304
H         -3.29935       -3.89780        4.29151
H         -3.13375       -2.36685        3.43400
H         -0.38725       -5.59819        2.61187
H         -1.58954       -5.78570        3.88993
H         -2.08882       -5.78459        2.20600
H         -0.80315       -2.23635        4.30443
H         -0.79892       -3.83723        5.01606
H          0.41265       -3.41767        3.80734
H         -3.79371       -3.76866        0.13047
H         -3.88676       -5.31068       -0.75350
H         -4.08725       -5.29403        1.00096
C          6.68369        0.45925        1.32951
C          5.74385        3.71765        0.24132
C          3.49792        4.49019        0.95081
C          4.91871        3.22124        2.57260
C          5.31404       -2.35876       -0.23858
C          3.94922       -1.93020       -2.29212
C          6.05785       -0.67024       -1.95937
H          6.13696        4.69191        0.53070
H          6.54606        2.99273        0.35518
H          5.47803        3.75868       -0.81444
H          3.96703        5.45145        1.15949
H          3.09508        4.52734       -0.06102
H          2.66834        4.38202        1.64801
H          5.65843        2.43815        2.71987
H          5.34144        4.15655        2.93859
H          4.05226        2.97852        3.18747
H          4.46122       -2.81066        0.26752
H          5.85576       -3.14879       -0.75808
H          5.97058       -1.94664        0.52382
H          4.52896       -2.59558       -2.93138
H          3.16062       -2.52884       -1.83966
H          3.48594       -1.17464       -2.92624
H          6.57073       -1.42573       -2.55403
H          6.78101       -0.25290       -1.26315
H          5.73837        0.12870       -2.62767
H          7.25789        1.21596        1.86382
H          5.89996        0.06986        1.98052
H          7.36135       -0.34793        1.05211
