59
-75.79975166
Cl         1.43683        0.71036        2.35876
P          1.52459       -0.08086       -0.75864
P         -1.63827       -0.16548       -0.87229
C          0.63231        0.37923       -2.31095
H          0.43397        1.45250       -2.28681
H          1.29685        0.19327       -3.16034
C         -0.64738       -0.40269       -2.41255
H         -0.43992       -1.46886       -2.52536
H         -1.25333       -0.10101       -3.27249
C          2.26666       -1.76170       -1.01852
H          1.65025       -2.23588       -1.79304
C          3.12054        0.85149       -0.61701
H          3.46440        0.73201        0.41710
C         -2.81861       -1.55345       -0.50546
H         -2.75529       -1.71592        0.57771
C         -2.86000        1.22271       -1.07712
H         -2.85817        1.47106       -2.14538
C          3.68243       -1.46753       -1.57052
H          4.42108       -2.01584       -0.97160
H          3.78918       -1.87970       -2.58508
C          4.02636        0.05285       -1.57064
H          3.90114        0.46119       -2.58397
H          5.08595        0.21716       -1.32053
C         -4.18673       -0.95491       -0.87086
H         -4.41017       -1.19577       -1.91942
H         -4.98376       -1.43365       -0.28156
C         -4.20159        0.58259       -0.67756
H         -4.40031        0.81300        0.37821
H         -5.02871        1.04211       -1.23968
C          2.25219       -2.60466        0.25771
H          2.59837       -3.61972        0.01743
H          1.21493       -2.72469        0.59701
C          2.99665        2.33559       -0.94680
H          3.99636        2.74280       -1.15284
H          2.44269        2.44895       -1.88694
C         -2.50599       -2.85197       -1.24130
H         -3.36137       -3.53448       -1.14055
H         -2.43215       -2.64310       -2.31626
C         -2.52373        2.46191       -0.25272
H         -3.39538        3.13109       -0.24420
H         -2.38190        2.16269        0.79367
C          3.08417       -2.04095        1.39997
H          3.02632       -2.66686        2.29350
H          2.74306       -1.04627        1.68319
H          4.13869       -1.95476        1.13520
C          2.33685        3.13239        0.16842
H          2.94248        3.11376        1.07652
H          1.36662        2.71380        0.43499
H          2.18480        4.17890       -0.10509
C         -1.24430       -3.53048       -0.73737
H         -1.02419       -4.45095       -1.28291
H         -1.32830       -3.78575        0.32079
H         -0.38174       -2.87389       -0.83934
C         -1.30555        3.21279       -0.75950
H         -1.08859        4.09856       -0.15801
H         -0.42104        2.57888       -0.73727
H         -1.44185        3.53988       -1.79205
Cl        -1.86642        0.15736        2.27702
Pd        -0.13056        0.15442        0.85974
