59
-75.79786980
Cl         1.71559        0.66233        2.34591
P          1.65520        0.07313       -0.83067
P         -1.49017       -0.28282       -0.73400
C          0.63462        0.27446       -2.35767
H          0.30025        1.31175       -2.42192
H          1.26267        0.07482       -3.23147
C         -0.54441       -0.65329       -2.27545
H         -0.21514       -1.69472       -2.22704
H         -1.21507       -0.55693       -3.13501
C          2.71930       -1.43383       -0.99625
H          2.41349       -1.95327       -1.91304
C          2.95943        1.36722       -0.55405
H          2.71811        1.86274        0.39479
C         -2.76707       -1.55798       -0.31920
H         -2.66554       -1.75375        0.75526
C         -2.57295        1.20320       -0.93956
H         -2.59540        1.42578       -2.01322
C          4.13261       -0.83543       -1.14135
H          4.87848       -1.54469       -0.75328
H          4.37491       -0.70399       -2.20648
C          4.24955        0.53203       -0.41736
H          5.10575        1.10298       -0.80488
H          4.46918        0.35924        0.64670
C         -4.09258       -0.83098       -0.60889
H         -4.40997       -1.06854       -1.63360
H         -4.89085       -1.21521        0.04427
C         -3.94838        0.70832       -0.45665
H         -4.06947        0.98080        0.60083
H         -4.75498        1.23285       -0.99107
C          2.56926       -2.36494        0.20429
H          2.66413       -1.77050        1.12279
H          3.41607       -3.06518        0.22498
C          3.01283        2.41120       -1.66970
H          4.00384        2.88616       -1.67133
H          2.93943        1.89966       -2.63803
C         -2.57232       -2.84782       -1.10760
H         -2.64783       -2.62259       -2.17956
H         -1.54655       -3.21104       -0.96016
C         -2.03070        2.39573       -0.16101
H         -2.01893        2.14428        0.90797
H         -0.97753        2.55236       -0.42897
C          1.26324       -3.14588        0.20441
H          0.39942       -2.48164        0.20287
H          1.17332       -3.79383        1.07917
H          1.18120       -3.77760       -0.68213
C          1.94188        3.48469       -1.53811
H          1.97566        4.20125       -2.36193
H          2.06109        4.04706       -0.60990
H          0.94093        3.05613       -1.51831
C         -3.56698       -3.93362       -0.72481
H         -3.40560       -4.85507       -1.28898
H         -4.59437       -3.61374       -0.90760
H         -3.49106       -4.18006        0.33595
C         -2.82532        3.67170       -0.39357
H         -2.41691        4.51611        0.16634
H         -2.82689        3.94741       -1.44983
H         -3.86693        3.55102       -0.09074
Cl        -1.54159       -0.08400        2.39952
Pd         0.11628        0.06958        0.89576
