111
-148.55688303
P         -2.59869        1.95202        1.01674
P          0.14112        0.46360        0.47969
C         -1.49938        1.56191        2.40570
C         -0.28136        0.96636        2.15866
C         -3.47245        3.56368        1.27469
C         -2.86770        4.67023        0.43850
C         -1.87261        1.85130        3.70276
H         -2.83442        2.29788        3.89416
C         -1.01738        1.55080        4.74902
H         -1.30807        1.77662        5.76201
C          0.20626        0.96033        4.49749
H          0.87078        0.72433        5.31229
C          0.57342        0.66248        3.19762
H          1.51675        0.18455        2.98487
Pd        -1.34014        1.60013       -0.88943
Cl        -3.02099        2.55765       -2.02658
Cl        -0.03209        1.18781       -2.66543
C         -4.93244        3.21526        0.93156
C         -4.04858        0.81151        0.86151
H         -3.38548        5.61900        0.59734
H         -1.81137        4.81535        0.67690
H         -2.93333        4.43493       -0.62431
H         -5.10405        3.42722       -0.13284
H         -5.62388        3.87311        1.47990
H         -4.09297        0.52001       -0.19650
C         -5.24267        1.71758        1.21698
C         -3.89251       -0.40534        1.74760
H         -3.38081        3.79881        2.34260
H         -5.47843        1.58968        2.28241
H         -6.14387        1.39329        0.67479
H         -4.76129       -1.06410        1.67911
H         -3.00842       -0.98367        1.47180
H         -3.77912       -0.11165        2.79277
C         -1.19791       -3.84043       -0.18604
C         -1.01640       -3.35834        1.13565
C         -0.59034       -2.05199        1.30526
C         -0.40969       -1.22295        0.22992
C         -0.67249       -1.65654       -1.04170
C         -1.11358       -2.94532       -1.28298
O         -1.42786       -5.22367       -0.41178
C         -1.24299       -4.23819        2.37471
H         -0.38749       -1.66286        2.28722
H         -0.52061       -0.96313       -1.85026
C         -1.47568       -3.34866       -2.72066
C          4.57814        0.68396       -0.50204
C          4.04740       -0.46183        0.14400
C          2.68951       -0.49014        0.41420
C          1.89021        0.58810        0.13726
C          2.41687        1.73940       -0.38538
C          3.76599        1.83261       -0.68649
O          5.90904        0.66670       -0.99782
C          4.90588       -1.68029        0.51807
H          2.22923       -1.36969        0.83104
H          1.74954        2.56159       -0.57839
C          4.31453        3.15220       -1.25130
C          0.06065       -4.97475        2.71826
C         -1.65707       -3.37834        3.59100
C         -2.37807       -5.24971        2.13370
C         -2.02048       -2.13139       -3.50394
C         -0.21913       -3.86954       -3.43418
C         -2.58026       -4.42066       -2.73578
C         -0.24232       -5.98034       -0.62242
H          0.86343       -4.26477        2.91647
H         -0.06473       -5.59873        3.60279
H          0.37976       -5.61420        1.89885
H         -1.93461       -4.01047        4.43419
H         -0.84428       -2.73658        3.92782
H         -2.51377       -2.75011        3.34932
H         -2.58208       -5.83145        3.03227
H         -3.29494       -4.73591        1.84655
H         -2.12472       -5.94845        1.34022
H         -1.24688       -1.38656       -3.68385
H         -2.40172       -2.43680       -4.47795
H         -2.83510       -1.65343       -2.96041
H         -0.44311       -4.15304       -4.46221
H          0.55593       -3.10374       -3.45620
H          0.19048       -4.73977       -2.92682
H         -2.88092       -4.65930       -3.75564
H         -2.24557       -5.34273       -2.26739
H         -3.45986       -4.07217       -2.19551
H         -0.18129       -6.77649        0.11943
H         -0.27009       -6.43818       -1.61100
H          0.63730       -5.34024       -0.54258
C          6.02359        0.18552       -2.33129
C          4.91041       -2.67688       -0.65114
C          6.34549       -1.25998        0.86536
C          4.33084       -2.38941        1.76599
C          4.19353        3.13514       -2.78279
C          3.51037        4.35518       -0.70788
C          5.78064        3.36971       -0.83506
H          5.50272       -3.55918       -0.40991
H          3.89669       -3.00347       -0.88254
H          5.32625       -2.22861       -1.55021
H          6.93583       -2.11582        1.19174
H          6.84913       -0.82132        0.00769
H          6.34666       -0.52166        1.66652
H          5.00567       -3.17243        2.11112
H          4.19220       -1.68280        2.58389
H          3.37324       -2.86380        1.55602
H          3.15428        3.00705       -3.08484
H          4.55895        4.06662       -3.21425
H          4.76549        2.31749       -3.21455
H          3.46500        4.33122        0.38060
H          3.97501        5.29578       -1.00282
H          2.49244        4.36759       -1.09449
H          5.88006        3.33871        0.24942
H          6.14737        4.33541       -1.18204
H          6.42978        2.60344       -1.25108
H          6.67237       -0.68997       -2.35033
H          5.04174       -0.08018       -2.72517
H          6.47185        0.95430       -2.96046
