111
-148.55649406
P         -2.53140        2.08555        0.87367
P          0.11931        0.38400        0.52625
C         -1.45775        1.78886        2.30423
C         -0.28721        1.08026        2.13885
C         -3.30525        3.76580        0.91744
C         -2.67607        4.68578       -0.10594
C         -1.80925        2.25409        3.55518
H         -2.73557        2.78954        3.68389
C         -0.97846        2.01632        4.63667
H         -1.25168        2.37985        5.61383
C          0.19805        1.31191        4.46628
H          0.84355        1.12530        5.30870
C          0.54278        0.83806        3.21316
H          1.44997        0.27330        3.06445
Pd        -1.28972        1.45909       -0.95951
Cl        -2.89967        2.19909       -2.33413
Cl         0.04451        0.79220       -2.64565
C         -4.79676        3.46362        0.67848
C         -4.04560        1.02350        0.85866
H         -2.79850        4.28555       -1.11348
H         -3.13466        5.67722       -0.08724
H         -1.60436        4.80342        0.07166
H         -5.00796        3.56164       -0.39531
H         -5.42582        4.21911        1.17337
H         -4.13470        0.63554       -0.16503
C         -5.17443        2.02981        1.14924
C         -3.93388       -0.10970        1.85504
H         -3.15156        4.15475        1.93197
H         -5.37087        2.03863        2.23023
H         -6.11354        1.69716        0.68136
H         -3.08681       -0.75782        1.62048
H         -3.78169        0.27542        2.86505
H         -4.83744       -0.72368        1.86545
C         -1.17702       -3.97220        0.20926
C         -1.11526       -3.35662        1.48853
C         -0.70219       -2.03636        1.56186
C         -0.44239       -1.31401        0.42694
C         -0.63077       -1.86647       -0.81192
C         -1.03457       -3.18059       -0.96081
O         -1.29451       -5.38174        0.10103
C         -1.48740       -4.06858        2.80017
H         -0.56984       -1.55799        2.51677
H         -0.44375       -1.25063       -1.67499
C         -1.30930       -3.68499       -2.38685
C          4.48384        0.76371       -0.71276
C          3.79743       -0.46337       -0.89600
C          2.47198       -0.53442       -0.50478
C          1.85164        0.52451        0.10430
C          2.53804        1.67943        0.37307
C          3.87027        1.81552        0.01600
O          5.76689        0.95268       -1.29172
C          4.44335       -1.69429       -1.55076
H          1.89541       -1.42305       -0.69077
H          2.01117        2.48206        0.85982
C          4.61678        3.10540        0.39116
C         -2.40659       -3.15414        3.63998
C         -2.25904       -5.37741        2.55751
C         -0.20827       -4.36708        3.59930
C         -2.18055       -2.65102       -3.13533
C          0.02456       -3.85309       -3.13381
C         -2.07892       -5.01672       -2.39874
C         -0.03666       -6.03623        0.08762
H         -2.72802       -3.65863        4.55081
H         -1.90387       -2.23574        3.93848
H         -3.29815       -2.88351        3.07539
H         -3.13319       -5.19778        1.93261
H         -1.63678       -6.11487        2.05608
H         -2.59619       -5.81479        3.49698
H         -0.44462       -4.85476        4.54469
H          0.45953       -5.02147        3.04219
H          0.33507       -3.44924        3.82188
H         -1.65791       -1.70665       -3.27760
H         -2.45821       -3.01889       -4.12263
H         -3.09691       -2.44783       -2.58196
H          0.66307       -4.58315       -2.63994
H         -0.14180       -4.18971       -4.15669
H          0.56853       -2.90995       -3.17598
H         -2.99577       -4.93565       -1.81592
H         -2.34564       -5.30735       -3.41458
H         -1.48298       -5.82022       -1.97249
H         -0.19122       -7.11038       -0.01635
H          0.56366       -5.67610       -0.74641
H          0.49788       -5.83775        1.01517
C          5.73248        1.48266       -2.61101
C          5.95142       -1.75762       -1.24949
C          3.81846       -2.99721       -0.99938
C          4.20501       -1.64262       -3.06762
C          6.11252        2.83164        0.63268
C          4.44210        4.13891       -0.73183
C          4.05218        3.70004        1.70154
H          6.47788       -0.90784       -1.67652
H          6.12816       -1.75358       -0.17445
H          6.39609       -2.66238       -1.66321
H          4.36094       -3.86999       -1.36213
H          3.85060       -3.01210        0.08972
H          2.78222       -3.11373       -1.31324
H          4.64849       -0.75207       -3.50634
H          4.63701       -2.51276       -3.56120
H          3.13805       -1.62326       -3.28875
H          6.60426        2.48576       -0.27305
H          6.62770        3.73331        0.96292
H          6.24393        2.06647        1.39702
H          3.38696        4.35994       -0.89113
H          4.94960        5.07156       -0.48680
H          4.84812        3.77252       -1.67155
H          3.03761        4.07347        1.57124
H          4.66030        4.53902        2.03911
H          4.04382        2.95245        2.49435
H          4.70196        1.65621       -2.92373
H          6.28551        2.42127       -2.64254
H          6.20843        0.78425       -3.29907
