111
-148.55441222
P         -2.61399        1.81510        1.02035
P          0.23247        0.56617        0.41495
C         -1.44891        1.51945        2.37985
C         -0.18671        1.03842        2.10620
C         -3.71868        3.24920        1.41533
C         -3.67866        4.30126        0.32942
C         -1.82043        1.77173        3.68552
H         -2.81461        2.12904        3.89795
C         -0.92140        1.54975        4.71423
H         -1.21158        1.74664        5.73339
C          0.34562        1.07473        4.43655
H          1.04533        0.89945        5.23712
C          0.71155        0.81339        3.12886
H          1.69082        0.42566        2.89958
Pd        -1.32065        1.71570       -0.89248
Cl        -3.04433        2.43901       -2.12225
Cl         0.06514        1.34159       -2.62234
C         -5.09979        2.58195        1.58837
C         -3.86829        0.47174        0.80849
H         -4.29887        5.16422        0.58311
H         -2.65990        4.65501        0.15500
H         -4.05265        3.89553       -0.61135
H         -5.88708        3.28098        1.27041
H         -5.29082        2.38698        2.65392
H         -3.67204        0.00308       -0.16576
C         -5.20139        1.24742        0.79622
C         -3.76040       -0.54997        1.91899
H         -3.36119        3.67426        2.36260
H         -6.00038        0.61236        1.20610
H         -5.49614        1.46352       -0.24137
H         -2.76772       -1.00325        1.94198
H         -3.93051       -0.08251        2.89066
H         -4.49423       -1.35091        1.80145
C         -1.33818       -3.66625       -0.23088
C         -0.93962       -3.25045        1.06520
C         -0.44041       -1.96823        1.21993
C         -0.37316       -1.10292        0.16000
C         -0.82402       -1.47642       -1.07747
C         -1.36506       -2.73048       -1.29630
O         -1.68045       -5.02490       -0.46404
C         -1.01630       -4.18064        2.28587
H         -0.09701       -1.62338        2.17931
H         -0.74146       -0.76531       -1.88015
C         -1.97161       -3.04315       -2.67337
C          4.70699        0.58693       -0.44089
C          4.14488       -0.40949        0.39752
C          2.77643       -0.39005        0.61005
C          1.99451        0.61628        0.10509
C          2.54995        1.64268       -0.61210
C          3.90850        1.67340       -0.88118
O          6.05626        0.47713       -0.87086
C          4.98288       -1.51757        1.05510
H          2.29636       -1.17811        1.16454
H          1.89592        2.40938       -0.98918
C          4.48370        2.84592       -1.69086
C         -1.14439       -3.36958        3.59561
C         -2.25109       -5.09574        2.20020
C          0.26584       -5.02354        2.36183
C         -3.12099       -4.06041       -2.55684
C         -2.56988       -1.76326       -3.30383
C         -0.87444       -3.58173       -3.60345
C         -0.59683       -5.82756       -0.91549
H         -1.98231       -2.67530        3.54473
H         -1.31295       -4.03203        4.44434
H         -0.23917       -2.80271        3.80872
H         -2.19261       -5.76034        1.34157
H         -2.34205       -5.71588        3.09160
H         -3.16096       -4.50410        2.10392
H          0.24847       -5.68380        3.22856
H          0.38607       -5.63915        1.47405
H          1.14372       -4.38272        2.44247
H         -2.76795       -5.01946       -2.18691
H         -3.88429       -3.69839       -1.86878
H         -3.59109       -4.23315       -3.52463
H         -3.11581       -2.00008       -4.21659
H         -3.26271       -1.27919       -2.61605
H         -1.79764       -1.04413       -3.57223
H         -1.27521       -3.80423       -4.59201
H         -0.07584       -2.84945       -3.72004
H         -0.43205       -4.49240       -3.20677
H          0.32485       -5.24472       -0.93901
H         -0.47232       -6.67909       -0.24662
H         -0.81153       -6.20891       -1.91347
C          6.22501       -0.28433       -2.06021
C          5.02339       -2.74282        0.12944
C          6.41164       -1.03016        1.35712
C          4.35950       -1.94074        2.40546
C          3.65781        4.13126       -1.45720
C          5.92991        3.15844       -1.26594
C          4.43251        2.49917       -3.18677
H          4.01686       -3.11485       -0.06100
H          5.47217       -2.49794       -0.83023
H          5.60292       -3.55041        0.57601
H          6.98402       -1.79476        1.88178
H          6.94960       -0.78526        0.44496
H          6.38813       -0.13676        1.98026
H          3.40517       -2.44740        2.26976
H          5.01529       -2.63198        2.93438
H          4.19998       -1.07431        3.04682
H          4.13728        4.98953       -1.92740
H          2.65897        4.05129       -1.88359
H          3.56237        4.34297       -0.39258
H          6.31469        4.02904       -1.79649
H          5.98002        3.36286       -0.19700
H          6.59489        2.32487       -1.47749
H          4.81831        3.31924       -3.79171
H          3.40781        2.30048       -3.50015
H          5.02263        1.61291       -3.40656
H          6.70936        0.32850       -2.82030
H          6.86433       -1.14357       -1.85855
H          5.25895       -0.62857       -2.43160
