59
-75.80429552
Cl         1.77174        0.20220        2.37938
P          1.64146       -0.02296       -0.87388
P         -1.53856       -0.15315       -0.72236
C          0.62384        0.01475       -2.41728
H          0.39756        1.05774       -2.64875
H          1.22672       -0.37317       -3.24407
C         -0.64602       -0.76711       -2.21968
H         -0.43252       -1.82821       -2.07661
H         -1.31794       -0.68627       -3.07950
C          2.88926       -1.39857       -0.91147
H          2.87892       -1.79317       -1.93468
C          2.79053        1.42522       -0.69080
H          2.73743        1.71224        0.36681
C         -3.10159       -1.09627       -0.40901
H         -3.38925       -0.87369        0.62608
C         -2.32373        1.48200       -1.10561
H         -1.79479        1.89499       -1.97254
C          4.22209       -0.68451       -0.62178
H          4.44495       -0.77718        0.45015
H          5.05010       -1.19245       -1.13916
C          4.16726        0.81668       -1.00416
H          4.36856        0.93026       -2.07843
H          4.96131        1.38264       -0.49328
C         -4.06992       -0.40130       -1.38096
H         -3.94934       -0.85441       -2.37554
H         -5.11379       -0.59929       -1.09148
C         -3.78889        1.12742       -1.45976
H         -4.45507        1.64935       -0.75972
H         -4.05133        1.51892       -2.45359
C          2.57883       -2.51116        0.08463
H          2.43270       -2.06509        1.07717
H          3.46185       -3.15751        0.18605
C          2.43770        2.62185       -1.56807
H          3.27792        3.33010       -1.55912
H          2.35720        2.28789       -2.61043
C         -2.96336       -2.60356       -0.59394
H         -3.96148       -3.04458       -0.72363
H         -2.43758       -2.80230       -1.53614
C         -2.19812        2.41309        0.09647
H         -2.77461        1.98911        0.93008
H         -1.15904        2.41690        0.45167
C          1.37234       -3.34583       -0.30569
H          0.48205       -2.72494       -0.38810
H          1.16046       -4.13032        0.42445
H          1.51910       -3.82702       -1.27454
C          1.16596        3.32792       -1.12992
H          0.92475        4.17877       -1.77116
H          1.25252        3.69991       -0.10718
H          0.31404        2.64996       -1.15145
C         -2.25298       -3.27012        0.57484
H         -1.29134       -2.79812        0.77541
H         -2.07395       -4.33311        0.39844
H         -2.83807       -3.18249        1.49239
C         -2.65238        3.83546       -0.19777
H         -3.69832        3.86497       -0.50759
H         -2.55044        4.48585        0.67392
H         -2.06612        4.27622       -1.00632
Cl        -1.50379       -0.20620        2.40714
Pd         0.13607       -0.08032        0.87783
