105
-153.06571651
Cl         0.14954        2.82344        2.70053
Pd        -0.21132        1.76815        0.74291
P         -0.69098        0.50871       -1.19681
N          0.45881       -0.77510       -1.56092
C          0.52718       -2.16370       -1.36324
C          0.00386       -2.83493       -0.22509
C          0.29876       -4.20096       -0.03112
C         -0.03610       -4.86099        1.28573
C         -0.20301       -6.38173        1.16568
C          1.03400       -6.99670        0.50299
C          1.27258       -6.39823       -0.89481
C          1.00035       -4.91547       -1.00631
C          1.47105       -4.24520       -2.12818
C          1.26708       -2.89944       -2.28760
H          1.67101       -2.38757       -3.14403
H          2.02247       -4.79628       -2.87125
H          2.30501       -6.58957       -1.21403
H          1.91171       -6.80936        1.13438
H         -0.39506       -6.83797        2.14711
H          0.77163       -4.63658        1.99284
C         -0.67872       -2.08082        0.85426
C          0.08766       -1.17046        1.62315
C         -0.51621       -0.51753        2.69654
C         -1.83459       -0.74097        2.99864
C         -2.60702       -1.62821        2.25656
C         -4.04274       -1.84218        2.68030
C         -4.86199       -2.79654        1.79003
C         -3.98674       -3.90178        1.18966
C         -2.84686       -3.27929        0.37340
C         -2.02731       -2.30640        1.18153
H         -2.20808       -4.05659       -0.06099
H         -4.58305       -4.59138        0.57555
H         -5.32643       -2.22815        0.97530
H         -4.53601       -0.86344        2.73510
H         -2.28930       -0.22083        3.82462
H          0.06327        0.18722        3.26574
N          1.40470       -0.89724        1.25064
P          1.88507        0.78837        1.09731
C          2.72006        1.04590       -0.46681
C          2.37793        2.12919       -1.24155
C          2.87284        2.23630       -2.52735
C          3.70761        1.25660       -3.04659
C          4.05907        0.18238       -2.24134
C          3.56962        0.07877       -0.95164
H          3.81742       -0.77114       -0.33530
H          4.70896       -0.57990       -2.63634
C          4.21092        1.34306       -4.44542
H          2.58997        3.07175       -3.14474
H          1.70352        2.87577       -0.85301
C          2.83199        1.38347        2.48878
C          2.95314        0.58100        3.59702
C          3.66216        1.03156        4.69632
C          4.25576        2.28707        4.68548
C          4.11215        3.08522        3.55784
C          3.40302        2.63267        2.45956
H          3.28419        3.25041        1.58341
H          4.55443        4.06672        3.54731
C          4.99378        2.78687        5.87843
H          3.75518        0.41102        5.57112
H          2.49212       -0.39387        3.59342
H          1.69869       -1.33335        0.38367
H          1.30840       -0.29518       -1.83494
C         -0.54158        1.65538       -2.57386
C         -0.90450        2.97681       -2.47458
C         -0.73627        3.82395       -3.55263
C         -0.21333        3.35052       -4.74825
C          0.14161        2.01160       -4.83618
C         -0.02731        1.16798       -3.75275
H          0.25354        0.12917       -3.81771
H          0.55903        1.63532       -5.75446
C          0.00378        4.26924       -5.89975
H         -1.00906        4.86223       -3.47082
H         -1.32156        3.34030       -1.55178
C         -2.34832       -0.15876       -1.30848
C         -3.38745        0.29787       -0.53390
C         -4.66209       -0.19987       -0.72585
C         -4.90922       -1.15048       -1.70769
C         -3.85359       -1.58134       -2.49958
C         -2.57603       -1.08829       -2.29608
H         -1.75042       -1.42266       -2.90469
H         -4.03639       -2.31010       -3.27062
C         -6.27989       -1.68970       -1.92607
H         -5.47678        0.15932       -0.12065
H         -3.20567        1.07060        0.19241
Cl        -2.09191        2.95069        0.42028
H          0.64207       -6.91704       -1.62688
H         -1.08929       -6.60203        0.55749
H          0.94096       -8.09055        0.44850
H         -0.93126       -4.41107        1.72794
H         -3.56452       -4.51163        1.99801
H         -3.26703       -2.74682       -0.48334
H         -4.03767       -2.22112        3.70945
H         -5.70006       -3.23024        2.35338
H          3.86207        0.49432       -5.03549
H          3.86613        2.25384       -4.93701
H          5.30157        1.34422       -4.46713
H          5.78752        3.47729        5.58977
H          4.32079        3.31243        6.55721
H          5.45415        1.96562        6.42948
H          1.00429        4.70266       -5.86548
H         -0.10259        3.74233       -6.84903
H         -0.71800        5.08716       -5.89286
H         -6.69641       -1.32098       -2.86438
H         -6.26698       -2.77985       -1.96781
H         -6.95587       -1.39669       -1.12162
