72
-108.39773228
Cl        -1.78502        0.59454        2.77216
Cl         1.11308       -0.44078        2.73643
P          1.12084       -1.12949       -0.31137
P         -2.25858        0.06982       -0.36370
C         -3.24077       -1.54435       -0.19386
C         -3.59203       -1.77052        1.27796
C         -4.50951       -1.46991       -1.03586
C         -3.33984        1.59880       -0.02279
C         -4.15594        1.96260       -1.27002
C         -1.47440        0.44310       -2.04070
C         -1.54396       -0.67770       -3.05734
C          1.10903        0.23353       -1.51342
C         -0.05911        0.98816       -1.96521
C          0.43269        2.08001       -2.80790
C          1.87762        1.99226       -2.87757
C          2.29139        0.85617       -2.07723
C         -2.37388       -2.71042       -0.64948
H         -2.69959       -1.76813        1.90377
H         -4.27248       -1.01548        1.66194
H         -5.19773       -0.71645       -0.65648
H         -5.03671       -2.42522       -1.01999
C         -4.29619        1.39790        1.14885
H         -3.54218        2.42612       -2.04161
H         -4.93292        2.68675       -1.01933
H         -2.09219        1.26313       -2.41807
H         -0.87848       -1.48965       -2.77389
H         -1.21027       -0.33537       -4.03912
H         -2.55224       -1.07237       -3.17544
H         -0.19318        2.77445       -3.37123
H          2.53622        2.64959       -3.44918
Pd        -0.51158       -0.32625        1.16874
H          3.31575        0.52335       -1.89781
C         -2.36589        2.72232        0.29743
H         -4.64505        1.09112       -1.70187
H         -3.77371        1.05299        2.03832
H         -4.78416        2.33887        1.40694
H         -5.08581        0.68949        0.90533
H         -1.62184        2.82868       -0.49336
H         -2.88805        3.67572        0.40052
H         -1.84964        2.52584        1.23635
H         -4.08183       -2.73664        1.41025
H         -4.28811       -1.23268       -2.07525
H         -1.44108       -2.73273       -0.08863
H         -2.88213       -3.66080       -0.47769
H         -2.14180       -2.66205       -1.71005
C          2.79342       -1.21480        0.37786
C          3.21284       -2.13666        1.30458
C          4.55019       -1.85654        1.58532
C          4.89422       -0.77417        0.81396
O          3.82510       -0.37025        0.06776
H          2.60982       -2.90953        1.75199
H          5.18669       -2.38319        2.27751
H          5.86579       -0.29621        0.79132
C          0.75563       -2.72640       -1.06200
C          0.76141       -3.91024       -0.36605
C          0.43573       -4.91948       -1.27320
C          0.24448       -4.30790       -2.48774
O          0.43344       -2.96026       -2.37093
H          0.96354       -4.02936        0.68602
H          0.35117       -5.97288       -1.06163
H         -0.02061       -4.80627       -3.41192
Fe         1.26553        2.17304       -0.90685
C          0.91052        2.59166        1.07923
C          0.81957        3.79349        0.27079
C          2.09376        3.97502       -0.40112
C          2.96863        2.88639       -0.00283
C          2.23352        2.03093        0.90775
H          0.14908        2.19913        1.75529
H         -0.03177        4.47602        0.22177
H          2.35809        4.80115       -1.06528
H          4.00336        2.74024       -0.32097
H          2.60848        1.12397        1.38438
