59
-75.81161736
Cl         1.60678        0.62487        2.27234
P          1.63355       -0.04939       -0.83776
P         -1.67285       -0.05342       -0.78248
C          0.58314        0.40884       -2.28583
H          0.32658        1.46862       -2.21638
H          1.17550        0.27208       -3.19567
C         -0.65707       -0.44174       -2.27823
H         -0.39456       -1.50228       -2.25120
H         -1.27847       -0.27901       -3.16440
C          2.51341       -1.63012       -1.25605
H          2.27587       -1.80113       -2.31472
C          3.10270        1.05752       -0.61630
H          3.25852        1.13629        0.46658
C         -2.99159       -1.31949       -0.49450
H         -3.35803       -1.14581        0.52497
C         -2.79512        1.36417       -1.20489
H         -2.32323        1.89889       -2.03824
C          4.00544       -1.27625       -1.11887
H          4.37300       -1.61139       -0.14159
H          4.59987       -1.83410       -1.85816
C          4.24511        0.25057       -1.25681
H          4.31375        0.51818       -2.32037
H          5.21176        0.53970       -0.81657
C         -4.05172       -0.87977       -1.51745
H         -3.80120       -1.32924       -2.48945
H         -5.03795       -1.29058       -1.25017
C         -4.10719        0.67024       -1.65288
H         -4.93262        1.05518       -1.03820
H         -4.36124        0.95746       -2.68396
C          2.04779       -2.82253       -0.42303
H          2.54155       -3.73175       -0.79341
H          0.97855       -2.98185       -0.61372
C          2.91149        2.44614       -1.21379
H          3.87704        2.97099       -1.21676
H          2.63650        2.34390       -2.27153
C         -2.52458       -2.76410       -0.63645
H         -3.40413       -3.41761       -0.71934
H         -1.99361       -2.87882       -1.58936
C         -3.00755        2.30836       -0.02386
H         -3.85365        2.97262       -0.24996
H         -3.32786        1.71660        0.84400
C          2.28941       -2.68867        1.07458
H          1.88041       -1.75739        1.46489
H          3.35252       -2.69455        1.31849
H          1.83011       -3.50582        1.63578
C          1.87534        3.27182       -0.46998
H          2.15577        3.40861        0.57614
H          0.90454        2.77784       -0.47634
H          1.74370        4.26299       -0.90985
C         -1.65367       -3.21849        0.52423
H         -0.78231       -2.57484        0.64116
H         -1.29459       -4.24201        0.39496
H         -2.20186       -3.17856        1.46743
C         -1.78863        3.14421        0.32994
H         -1.99933        3.85411        1.13307
H         -0.96281        2.51948        0.66693
H         -1.43783        3.71644       -0.53093
Cl        -1.59396        0.08994        2.38592
Pd         0.00100        0.06288        0.80507
