64
-97.21268751
Cl        -1.64215       -1.24890       -2.52449
Cl         1.60172       -1.23037       -2.90305
P          1.96320       -0.65469        0.22918
C          2.14822       -2.33411        0.98751
C          3.75349       -0.25269       -0.06366
P         -1.30453       -0.14356        0.44552
C          1.27990        0.56525        1.40955
C         -0.14704        0.80554        1.50274
C         -0.34036        1.93579        2.39889
C          0.95924        2.36400        2.88607
C          1.96480        1.51847        2.26849
H         -1.30365        2.33902        2.71780
H          1.14636        3.17305        3.59581
Pd         0.15398       -0.91735       -1.22651
H          3.04459        1.58437        2.41664
C         -5.04120        2.13957       -0.84494
C         -4.03902        2.80825       -0.17119
C         -2.90298        2.12767        0.22531
C         -2.76544        0.78680       -0.05562
C         -3.76756        0.11872       -0.72198
C         -4.90769        0.79353       -1.12025
H         -5.92753        2.66818       -1.15604
H         -4.14073        3.85913        0.04516
H         -2.11762        2.64438        0.74745
H         -3.65067       -0.93129       -0.93659
H         -5.68766        0.26882       -1.64719
C         -2.63558       -3.96239        2.51059
C         -2.40580       -2.82177        3.25563
C         -2.00881       -1.65549        2.62591
C         -1.84326       -1.64298        1.26036
C         -2.07742       -2.77362        0.51288
C         -2.47410       -3.94057        1.13884
H         -2.94435       -4.87128        3.00080
H         -2.53382       -2.83941        4.32549
H         -1.81946       -0.75651        3.19099
H         -1.95752       -2.73025       -0.55785
H         -2.65772       -4.82881        0.55698
C          4.13332       -0.32250       -1.52649
H          3.92139        0.75901        0.32800
C          4.48106       -1.30734        0.79316
H          4.65540       -0.91294        1.80504
C          3.65896       -2.62020        0.88652
H          5.47861       -1.50240        0.37302
C          1.62902       -2.32788        2.40895
H          1.56879       -3.03161        0.36714
H          3.97941       -3.21814        1.75181
H          3.86491       -3.24278        0.00374
H          2.18144       -1.60763        3.01574
H          0.57528       -2.04584        2.44582
H          1.73215       -3.30866        2.87918
H          3.92167       -1.31470       -1.92825
H          3.57567        0.39831       -2.12621
H          5.19764       -0.12636       -1.67345
Fe         0.85192        2.46620        0.83886
C          2.26022        3.14786       -0.53816
C          1.46851        4.24098       -0.00010
C          0.07268        3.98938       -0.31502
C          0.00603        2.71348       -1.00554
C          1.35459        2.20980       -1.17000
H          3.34869        3.06695       -0.50501
H          1.86002        5.12271        0.51232
H         -0.77115        4.63995       -0.07454
H         -0.89332        2.25043       -1.41676
H          1.62800        1.30577       -1.71641
