111
-148.55503944
P         -2.57745        2.06096        1.04829
P          0.10747        0.42572        0.49917
C         -1.45858        1.66060        2.41829
C         -0.27862        0.99286        2.16775
C         -3.36080        3.72470        1.25382
C         -2.76885        4.73380        0.29423
C         -1.78873        2.01091        3.71174
H         -2.72145        2.51479        3.90578
C         -0.92909        1.69913        4.75108
H         -1.18633        1.97288        5.76129
C          0.25588        1.03586        4.49602
H          0.92385        0.79106        5.30537
C          0.58002        0.67756        3.19975
H          1.49297        0.14452        2.98395
Pd        -1.36354        1.60249       -0.85161
Cl        -3.01803        2.44199       -2.10422
Cl         0.05386        1.07554       -2.52117
C         -4.85665        3.42953        1.03440
C         -4.08396        0.98982        0.98853
H         -2.92069        4.42048       -0.73967
H         -3.23190        5.71632        0.41193
H         -1.69276        4.84437        0.44823
H         -5.10065        3.61410       -0.02089
H         -5.47572        4.13555        1.60860
H         -4.20109        0.68875       -0.06123
C         -5.21008        1.95818        1.39549
C         -3.93625       -0.22249        1.88199
H         -3.17958        4.02868        2.29257
H         -5.37332        1.87555        2.47890
H         -6.16087        1.65681        0.93000
H         -3.09624       -0.84459        1.56599
H         -3.75177        0.07739        2.91524
H         -4.83731       -0.84010        1.87046
C         -1.15231       -3.91093       -0.08095
C         -1.09643       -3.37269        1.23070
C         -0.70768       -2.05229        1.38258
C         -0.45488       -1.26229        0.29234
C         -0.61029       -1.74872       -0.97779
C         -0.99811       -3.05722       -1.20286
O         -1.31991       -5.30878       -0.26816
C         -1.40699       -4.21025        2.48083
H         -0.58045       -1.62500        2.36134
H         -0.40553       -1.08288       -1.79771
C         -1.20715       -3.52959       -2.64946
C          4.49709        0.67880       -0.67222
C          3.91137       -0.57861       -0.37719
C          2.57264       -0.60890       -0.02675
C          1.84662        0.54606        0.10357
C          2.43409        1.77022       -0.07548
C          3.77021        1.87298       -0.42873
O          5.79413        0.74027       -1.24765
C          4.68306       -1.90397       -0.47416
H          2.06849       -1.54669        0.13020
H          1.82448        2.64910        0.04578
C          4.39541        3.26748       -0.58872
C         -1.95411       -3.31732        3.61786
C         -2.48542       -5.26802        2.18409
C         -0.11829       -4.88911        2.96894
C         -1.71892       -2.36621       -3.53046
C          0.13130       -4.02474       -3.21840
C         -2.26438       -4.64582       -2.72423
C         -0.09755       -6.03251       -0.33872
H         -1.19702       -2.63047        3.99318
H         -2.80867       -2.73428        3.27644
H         -2.28093       -3.92420        4.46194
H         -2.75205       -5.81950        3.08534
H         -3.38758       -4.79716        1.79490
H         -2.14129       -5.98945        1.44711
H         -0.30375       -5.48054        3.86519
H          0.29094       -5.55050        2.20913
H          0.64264       -4.14576        3.20591
H         -1.99266       -2.72351       -4.52280
H         -2.59948       -1.90234       -3.08681
H         -0.96014       -1.59726       -3.66661
H          0.87415       -3.22747       -3.20306
H          0.52516       -4.85415       -2.63565
H          0.01753       -4.36038       -4.24881
H         -2.45727       -4.93441       -3.75717
H         -1.94185       -5.53536       -2.18928
H         -3.20385       -4.31393       -2.28353
H         -0.01791       -6.52520       -1.30753
H          0.75122       -5.36115       -0.20178
H         -0.08285       -6.79975        0.43526
C          5.79812        0.69891       -2.66927
C          6.17045       -1.70748       -0.13006
C          4.12104       -2.93705        0.53004
C          4.53553       -2.47386       -1.89329
C          5.89241        3.25070       -0.22962
C          4.20198        3.74564       -2.03585
C          3.71749        4.28195        0.36008
H          6.70375       -2.65773       -0.13899
H          6.65979       -1.04938       -0.84353
H          6.27988       -1.26624        0.86004
H          4.74615       -3.82930        0.55729
H          4.08797       -2.52093        1.53661
H          3.11683       -3.26000        0.25893
H          5.06431       -3.42168       -1.99062
H          3.48609       -2.64654       -2.13122
H          4.93408       -1.78852       -2.63736
H          6.45726        2.61915       -0.91066
H          6.31877        4.25229       -0.27986
H          6.04044        2.86908        0.78003
H          3.14293        3.78454       -2.28985
H          4.62091        4.74148       -2.17786
H          4.68548        3.07401       -2.74098
H          3.72328        3.91626        1.38657
H          2.68617        4.47807        0.07075
H          4.24109        5.23755        0.34233
H          6.36580       -0.16707       -3.00922
H          4.77786        0.63814       -3.05036
H          6.27954        1.59532       -3.05978
