75
-122.81871805
P          1.81662       -0.56594        0.00206
C          3.14304       -1.27742       -0.98645
C          4.39966       -1.34982       -0.42928
C          5.44105       -1.90832       -1.14842
C          5.21339       -2.39866       -2.41875
C          3.94822       -2.33668       -2.96807
C          2.90943       -1.77802       -2.24660
H          1.91803       -1.72661       -2.66606
H          3.76955       -2.72154       -3.95866
H          6.02370       -2.83299       -2.98129
H          6.42666       -1.96216       -0.71607
H          4.55788       -0.97731        0.57091
C          1.68191       -1.58925        1.47271
C          1.69455       -1.02452        2.72733
C          1.67958       -1.83538        3.84697
C          1.65243       -3.20818        3.70093
C          1.63649       -3.77090        2.44000
C          1.65380       -2.95668        1.32167
H          1.65939       -3.38040        0.32961
H          1.61202       -4.84212        2.32598
H          1.63647       -3.84153        4.57280
H          1.68412       -1.39554        4.83066
H          1.70854        0.04844        2.82480
C          2.21313        1.13219        0.45180
C          3.37620        1.77722        0.10178
C          3.55392        3.12179        0.39743
C          2.51621        3.81404        1.02108
C          1.33883        3.18456        1.35922
C          1.18793        1.81553        1.08694
O          0.00115        1.13575        1.40333
C         -1.18656        1.81061        1.07948
C         -1.34286        3.18012        1.34611
C         -2.51843        3.80596        0.99535
C         -3.54502        3.11136        0.35592
C         -3.36980        1.76159        0.08436
C         -2.20830        1.12022        0.44634
P         -1.80635       -0.58365        0.02128
C         -1.68351       -1.58397        1.51074
C         -1.61007       -0.99632        2.75272
C         -1.60650       -1.78427        3.88859
C         -1.67531       -3.15836        3.77204
C         -1.74376       -3.74510        2.52396
C         -1.75016       -2.95321        1.38961
H         -1.82123       -3.39536        0.40825
H         -1.79419       -4.81757        2.43242
H         -1.66819       -3.77428        4.65643
H         -1.54406       -1.32594        4.86182
H         -1.54528        0.07636        2.82755
C         -3.12159       -1.31784       -0.96586
C         -4.39015       -1.36063       -0.43330
C         -5.42005       -1.93989       -1.15249
C         -5.16904       -2.48127       -2.39744
C         -3.89185       -2.45010       -2.92091
C         -2.86453       -1.87064       -2.19935
H         -1.86341       -1.84444       -2.59774
H         -3.69480       -2.87533       -3.89129
H         -5.97039       -2.93198       -2.95993
H         -6.41492       -1.97082       -0.73955
H         -4.56658       -0.95103        0.54914
Pd        -0.00293       -0.03828       -1.42815
Cl        -1.62286        0.93521       -2.66011
Cl         1.58198        1.00432       -2.64909
H         -4.13645        1.21933       -0.43982
C         -4.81036        3.79565       -0.02192
H         -5.15265        3.46736       -1.00425
H         -4.67860        4.87762       -0.06190
H         -5.59862        3.57874        0.70007
H         -2.63569        4.85381        1.20812
S         -0.00712        4.05942        2.11596
H          2.62601        4.86362        1.22938
C          4.80040        3.82437       -0.00728
H          4.14161        1.24199       -0.43155
H          4.72243        4.18824       -1.03263
H          4.99946        4.67945        0.64014
H          5.66212        3.15777        0.04912
