111
-148.54975827
P         -2.58516        1.97664       -0.39452
P          0.06975        0.48454        0.44172
C         -1.89153        2.24071        1.25824
C         -0.72059        1.60576        1.60943
C         -3.04990        3.59073       -1.17347
C         -2.23760        3.85198       -2.42296
C         -2.51450        3.08262        2.15713
H         -3.42067        3.59078        1.87076
C         -1.96801        3.27320        3.41456
H         -2.45500        3.92842        4.11824
C         -0.79934        2.62617        3.76794
H         -0.37470        2.77324        4.74735
C         -0.17314        1.78930        2.86164
H          0.73890        1.27569        3.12152
Pd        -1.10551        0.62528       -1.55607
Cl        -2.51301        0.73486       -3.29607
Cl         0.53847       -0.55326       -2.52587
C         -4.56758        3.44888       -1.42149
C         -4.22091        1.11110       -0.43268
H         -1.16575        3.83892       -2.21064
H         -2.43320        3.08800       -3.17649
H         -2.48339        4.82003       -2.86593
H         -4.83018        3.94303       -2.36798
H         -5.12625        3.98969       -0.64365
H         -4.03403        0.10017       -0.82035
C         -5.02173        1.96152       -1.43970
C         -4.85197        1.04860        0.94151
H         -2.84487        4.36484       -0.42135
H         -6.09639        1.87996       -1.21966
H         -4.89314        1.55498       -2.45374
H         -4.18822        0.56846        1.66242
H         -5.06787        2.05190        1.31215
H         -5.79410        0.49547        0.92585
C         -1.19495       -3.82700        1.14345
C          0.04222       -3.56032        0.50267
C          0.41334       -2.23870        0.31923
C         -0.35393       -1.21525        0.80977
C         -1.49841       -1.46994        1.51980
C         -1.92157       -2.76907        1.74829
O         -1.73336       -5.14103        1.12924
C          0.94716       -4.67037       -0.05279
H          1.29145       -1.98680       -0.24979
H         -2.07088       -0.63309        1.87974
C         -3.17614       -3.00513        2.60325
C          4.54765        1.24955        0.08773
C          3.66157        1.73002       -0.91262
C          2.30455        1.50799       -0.74619
C          1.83186        0.75939        0.29978
C          2.69446        0.18256        1.19587
C          4.06304        0.37731        1.09824
O          5.89175        1.70214        0.12121
C          4.12032        2.44775       -2.19349
H          1.59591        1.91515       -1.44789
H          2.28411       -0.42696        1.98319
C          4.97255       -0.37581        2.08410
C          0.58004       -4.93075       -1.52163
C          2.43110       -4.24687        0.02064
C          0.81343       -5.96661        0.76693
C         -4.42141       -2.92873        1.70689
C         -3.12027       -4.36881        3.31594
C         -3.28777       -1.92980        3.70795
C         -2.56911       -5.40484        0.00884
H         -0.45450       -5.25238       -1.61734
H          0.70091       -4.02450       -2.11474
H          1.21525       -5.70424       -1.95234
H          2.69507       -3.95142        1.03532
H          3.08362       -5.07048       -0.26821
H          2.64982       -3.41611       -0.64833
H          1.50749       -6.72802        0.41194
H          1.02504       -5.77861        1.81901
H         -0.18977       -6.37922        0.69759
H         -5.33171       -3.06768        2.28949
H         -4.48168       -1.96043        1.21137
H         -4.39693       -3.69332        0.93376
H         -2.21525       -4.45081        3.91691
H         -3.97827       -4.50224        3.97438
H         -3.12256       -5.18998        2.60377
H         -4.10779       -2.15799        4.38845
H         -2.37016       -1.88102        4.29361
H         -3.48097       -0.94153        3.29563
H         -2.63731       -4.52315       -0.62979
H         -2.16134       -6.23697       -0.56483
H         -3.56570       -5.68221        0.35192
C          6.04914        2.89908        0.86460
C          3.40134        1.82525       -3.41160
C          3.76032        3.93959       -2.10360
C          5.63166        2.29706       -2.43881
C          4.53541       -1.85479        2.15917
C          6.44759       -0.36850        1.64580
C          4.84907        0.25950        3.47864
H          3.57110        0.74963       -3.44921
H          2.32626        1.99281       -3.37780
H          3.76778        2.25697       -4.34251
H          4.26321        4.41556       -1.26390
H          4.05267        4.46581       -3.01193
H          2.68753        4.07411       -1.96859
H          5.91912        2.72762       -3.39773
H          6.20843        2.79995       -1.66616
H          5.91776        1.24585       -2.43813
H          4.55323       -2.30794        1.16858
H          5.20510       -2.42607        2.80155
H          3.53012       -1.96108        2.56315
H          6.54811       -0.74723        0.62926
H          6.86091        0.63703        1.66936
H          7.05594       -0.98996        2.30251
H          5.46797       -0.26865        4.20353
H          3.81854        0.22843        3.83108
H          5.16392        1.30133        3.46446
H          5.43949        3.69069        0.43197
H          5.73890        2.74122        1.89639
H          7.09699        3.19931        0.84510
