111
-148.55244417
P         -2.31375        2.40733       -0.29735
P         -0.08438        0.28599        0.47253
C         -1.81335        2.21928        1.42962
C         -0.87423        1.26926        1.76457
C         -2.14600        4.15960       -0.86179
C         -1.03879        4.27804       -1.88672
C         -2.38993        2.99863        2.41158
H         -3.11451        3.74846        2.13779
C         -2.03628        2.80861        3.73631
H         -2.48734        3.41441        4.50517
C         -1.11317        1.83750        4.07401
H         -0.84432        1.68278        5.10598
C         -0.53155        1.06435        3.08514
H          0.18340        0.29569        3.33437
Pd        -1.19926        0.79236       -1.51032
Cl        -2.58703        1.20097       -3.22276
Cl        -0.08024       -0.91014       -2.46339
C         -3.55006        4.49880       -1.39863
C         -4.13454        2.16239       -0.54473
H         -1.24535        3.64379       -2.75135
H         -0.93442        5.30470       -2.24586
H         -0.07780        3.96333       -1.47186
H         -3.55303        4.35867       -2.48830
H         -3.77524        5.56400       -1.23831
H         -4.23666        1.58333       -1.47196
C         -4.64578        3.59760       -0.76232
C         -4.77909        1.42438        0.60904
H         -1.91934        4.75242        0.03411
H         -4.95133        4.01647        0.20627
H         -5.55639        3.58963       -1.38061
H         -4.65816        1.97474        1.54294
H         -5.85021        1.28616        0.44514
H         -4.32882        0.43946        0.74792
C         -1.10394       -4.12473        0.89257
C          0.22804       -3.74989        0.57968
C          0.51941       -2.40113        0.46806
C         -0.43319       -1.44936        0.71884
C         -1.69198       -1.80337        1.12917
C         -2.04610       -3.13486        1.27466
O         -1.50835       -5.48015        0.76797
C          1.33715       -4.77441        0.29719
H          1.49452       -2.07553        0.15285
H         -2.40351       -1.01888        1.32252
C         -3.44798       -3.47720        1.80164
C          4.38115        1.18165        0.09072
C          3.71357        0.43302       -0.91072
C          2.35535        0.21495       -0.76581
C          1.67377        0.63884        0.34449
C          2.33668        1.28168        1.35789
C          3.69608        1.53550        1.28090
O          5.72272        1.60255       -0.11136
C          4.42898       -0.11579       -2.15556
H          1.79670       -0.28507       -1.53579
H          1.77226        1.59754        2.21595
C          4.40052        2.20535        2.47191
C          1.38091       -5.06269       -1.21128
C          2.71162       -4.22197        0.73869
C          1.10849       -6.07967        1.08058
C         -3.91112       -2.41931        2.82934
C         -4.43913       -3.49539        0.62819
C         -3.45830       -4.83585        2.52567
C         -2.01399       -5.80770       -0.52043
H          0.43764       -5.47794       -1.55901
H          1.56584       -4.14737       -1.77311
H          2.17156       -5.77300       -1.45136
H          3.02590       -3.37909        0.12599
H          2.68177       -3.89620        1.77806
H          3.48279       -4.98675        0.64926
H          1.93196       -6.77707        0.92883
H          1.02731       -5.87729        2.14800
H          0.19488       -6.57725        0.76542
H         -3.16766       -2.29308        3.61598
H         -4.08333       -1.45034        2.36432
H         -4.84775       -2.71953        3.29855
H         -5.44784       -3.72246        0.97218
H         -4.46253       -2.52738        0.12811
H         -4.15918       -4.24254       -0.11109
H         -2.72317       -4.84761        3.32967
H         -4.43717       -5.04242        2.95767
H         -3.22112       -5.65016        1.84581
H         -1.98494       -4.93352       -1.17231
H         -1.41377       -6.60555       -0.95753
H         -3.04140       -6.16061       -0.43265
C          5.84571        2.86816       -0.74830
C          3.73586       -1.40057       -2.66522
C          4.38347        0.93744       -3.27281
C          5.88707       -0.49157       -1.83564
C          5.85723        1.72285        2.59693
C          4.36035        3.73077        2.29541
C          3.69343        1.84562        3.79889
H          4.31088       -1.85645       -3.47080
H          3.64283       -2.13422       -1.86570
H          2.74211       -1.19514       -3.06005
H          4.87536        0.57225       -4.17395
H          3.35276        1.18373       -3.52704
H          4.87791        1.85691       -2.96923
H          5.92711       -1.20861       -1.01629
H          6.37575       -0.93792       -2.70134
H          6.46718        0.38029       -1.54399
H          6.44719        2.01207        1.73088
H          6.33662        2.14778        3.47847
H          5.89586        0.63720        2.67983
H          4.86790        4.03622        1.38374
H          3.33128        4.08450        2.23611
H          4.84250        4.23353        3.13341
H          4.26509        2.20918        4.65251
H          3.58866        0.76587        3.90216
H          2.70358        2.29505        3.86380
H          6.39974        3.54977       -0.10310
H          6.40041        2.75661       -1.67977
H          4.86046        3.28596       -0.95899
