111
-148.55312367
P         -2.66122        1.90491       -0.08983
P          0.12289        0.48484        0.39073
C         -1.85025        2.04044        1.52706
C         -0.61279        1.46334        1.71387
C         -3.55581        3.46157       -0.53951
C         -2.79506        4.26325       -1.57300
C         -2.46080        2.70952        2.56861
H         -3.43722        3.14217        2.42520
C         -1.82262        2.80609        3.79328
H         -2.29850        3.32868        4.60697
C         -0.57900        2.23188        3.97521
H         -0.08386        2.30487        4.92951
C          0.02619        1.55325        2.93270
H          0.98860        1.08305        3.06190
Pd        -1.05443        1.06326       -1.51872
Cl        -2.49960        1.43410       -3.19242
Cl         0.62621        0.19879       -2.73307
C         -4.92808        2.94101       -1.00553
C         -4.06060        0.69392       -0.13290
H         -3.32550        5.18145       -1.83576
H         -1.80132        4.53662       -1.21028
H         -2.66125        3.68781       -2.48982
H         -4.89687        2.79206       -2.09373
H         -5.70612        3.70016       -0.83274
H         -3.90376        0.08184       -1.03130
C         -5.29501        1.59811       -0.31067
C         -4.08450       -0.17140        1.10836
H         -3.66374        4.03747        0.38830
H         -5.72742        1.80416        0.67812
H         -6.08007        1.06798       -0.87102
H         -4.17115        0.44211        2.00701
H         -4.92808       -0.86547        1.09605
H         -3.16762       -0.75706        1.19863
C         -1.34566       -3.80750        0.78335
C         -0.79731       -3.35699       -0.44453
C         -0.35547       -2.04847       -0.52003
C         -0.37562       -1.22680        0.57531
C         -0.79835       -1.69230        1.79257
C         -1.25421       -2.99164        1.94048
O         -2.02697       -5.05217        0.84317
C         -0.72844       -4.23747       -1.70131
H         -0.01070       -1.63529       -1.45154
H         -0.79149       -1.01409        2.62752
C         -1.68254       -3.47833        3.33360
C          4.63572        0.99176        0.06539
C          3.79824        2.13520        0.12158
C          2.43209        1.94339        0.25260
C          1.89449        0.68290        0.26081
C          2.68916       -0.42128        0.09783
C          4.06146       -0.30049       -0.04174
O          6.04646        1.13714        0.14544
C          4.35185        3.56749        0.05854
H          1.76322        2.78111        0.35300
H          2.21768       -1.38808        0.07695
C          4.90190       -1.56126       -0.29813
C          0.48473       -3.84495       -2.57524
C         -0.55306       -5.72175       -1.33327
C         -2.00999       -4.04111       -2.52556
C         -1.44362       -4.99101        3.49091
C         -0.85492       -2.77533        4.43362
C         -3.16735       -3.15082        3.55394
C         -3.41851       -4.96108        0.56321
H          0.36886       -2.85230       -3.00742
H          1.40325       -3.85935       -1.98998
H          0.60583       -4.54178       -3.40421
H         -0.44054       -6.33623       -2.22614
H          0.33111       -5.86076       -0.71202
H         -1.41045       -6.09823       -0.78124
H         -2.12347       -2.99718       -2.81741
H         -1.98752       -4.64468       -3.43247
H         -2.89231       -4.32265       -1.95565
H         -2.05806       -5.56380        2.80087
H         -0.40095       -5.23730        3.29305
H         -1.68521       -5.32316        4.50027
H         -1.08845       -1.71362        4.49836
H         -1.06438       -3.20850        5.41142
H          0.21262       -2.88113        4.24227
H         -3.79265       -3.62944        2.80406
H         -3.49993       -3.48847        4.53516
H         -3.33858       -2.07646        3.49215
H         -3.69952       -3.92647        0.36190
H         -3.65907       -5.57739       -0.30286
H         -3.98800       -5.33323        1.41470
C          6.56023        1.09919        1.47078
C          3.31695        4.52486       -0.57520
C          4.66454        4.05530        1.48114
C          5.61700        3.63464       -0.81638
C          6.12710       -1.23891       -1.17270
C          5.35019       -2.15852        1.04404
C          4.07292       -2.62269       -1.05713
H          2.97525        4.14371       -1.53722
H          2.44894        4.66344        0.06759
H          3.75211        5.51012       -0.74104
H          3.76714        4.04059        2.09928
H          5.40664        3.42180        1.96095
H          5.04951        5.07467        1.46863
H          5.41399        3.24643       -1.81392
H          5.97055        4.66051       -0.91660
H          6.42676        3.04844       -0.38920
H          5.81788       -0.77590       -2.10920
H          6.80417       -0.55307       -0.66945
H          6.68860       -2.14228       -1.40950
H          5.95979       -1.45454        1.60517
H          4.48759       -2.41397        1.65910
H          5.93651       -3.06433        0.89170
H          3.62503       -2.19523       -1.95395
H          3.27723       -3.03081       -0.43562
H          4.70077       -3.45945       -1.36236
H          5.75236        0.95100        2.18848
H          7.28049        0.28614        1.55995
H          7.07497        2.03435        1.69040
