59
-75.80232147
Cl         1.62710        1.01069        2.29343
P          1.72355       -0.02201       -0.80047
P         -1.44564       -0.30034       -0.77964
C          0.73182        0.25717       -2.33297
H          0.43484        1.30896       -2.35501
H          1.37139        0.07564       -3.20236
C         -0.47673       -0.63587       -2.31452
H         -0.17813       -1.68715       -2.30584
H         -1.12449       -0.48398       -3.18341
C          2.67847       -1.60821       -0.94358
H          2.37752       -2.06669       -1.89317
C          3.14273        1.15982       -0.66240
H          3.32779        1.28539        0.41158
C         -2.61142       -1.65285       -0.27393
H         -2.34147       -1.91531        0.75630
C         -2.65064        1.08800       -0.98811
H         -2.85860        1.16267       -2.06249
C          4.15279       -1.15179       -0.99829
H          4.62234       -1.36631       -0.02855
H          4.71314       -1.75086       -1.73157
C          4.29089        0.36390       -1.30318
H          4.27188        0.52777       -2.38988
H          5.26364        0.75041       -0.96144
C         -3.99488       -0.97479       -0.31374
H         -4.49962       -1.25655       -1.24788
H         -4.63433       -1.36219        0.49369
C         -3.89017        0.57256       -0.23783
H         -3.81988        0.88353        0.81391
H         -4.80271        1.04838       -0.62865
C          2.38806       -2.55219        0.22030
H          2.50939       -1.99662        1.15999
H          3.15865       -3.33561        0.24522
C          2.87415        2.51646       -1.30180
H          3.81982        3.07038       -1.38223
H          2.54221        2.36413       -2.33666
C         -2.50379       -2.87725       -1.17625
H         -2.75110       -2.58071       -2.20418
H         -1.45955       -3.21133       -1.21780
C         -2.10034        2.40789       -0.46495
H         -1.84103        2.28960        0.59537
H         -1.15356        2.62531       -0.97553
C          1.01108       -3.19196        0.15667
H          0.22371       -2.43882        0.16303
H          0.82882       -3.85926        1.00211
H          0.89130       -3.77820       -0.75633
C          1.85691        3.33731       -0.52545
H          0.92020        2.79307       -0.40911
H          1.63117        4.28722       -1.01519
H          2.21645        3.56141        0.48069
C         -3.39456       -4.02601       -0.72671
H         -3.29943       -4.89794       -1.37794
H         -4.44654       -3.73539       -0.72086
H         -3.14381       -4.34410        0.28705
C         -3.06418        3.57122       -0.64328
H         -3.99666        3.40087       -0.10233
H         -2.64264        4.51123       -0.27985
H         -3.32250        3.71116       -1.69465
Cl        -1.50992        0.08102        2.39187
Pd         0.12426        0.17422        0.85760
