59
-75.79785974
Cl         1.70205        0.62406        2.26882
P          1.64513       -0.10784       -0.81043
P         -1.56678       -0.22785       -0.77139
C          0.62893        0.20607       -2.32239
H          0.35276        1.26345       -2.33995
H          1.24720        0.01264       -3.20469
C         -0.59616       -0.66386       -2.27966
H         -0.31938       -1.71909       -2.23319
H         -1.23522       -0.52798       -3.15767
C          2.58078       -1.68806       -1.08471
H          2.30389       -1.98960       -2.10389
C          3.07160        1.06184       -0.66803
H          3.25127        1.19079        0.40623
C         -2.95881       -1.37508       -0.33394
H         -2.79506       -1.67425        0.70934
C         -2.52611        1.31645       -1.12219
H         -2.12409        1.75127       -2.04576
C          4.06098       -1.25827       -1.06026
H          4.50099       -1.51397       -0.08926
H          4.63800       -1.83568       -1.79816
C          4.22423        0.26679       -1.30530
H          4.23694        0.46800       -2.38562
H          5.19314        0.62662       -0.92613
C         -4.21223       -0.48032       -0.45308
H         -5.04806       -1.06716       -0.86031
H         -4.53960       -0.16288        0.54790
C         -3.95418        0.77614       -1.32803
H         -4.69145        1.56031       -1.10455
H         -4.10558        0.51967       -2.38728
C          2.19958       -2.79204       -0.09784
H          2.66751       -3.73407       -0.41616
H          1.11861       -2.96664       -0.17406
C          2.80406        2.41559       -1.31422
H          3.73999        2.99096       -1.34101
H          2.53249        2.26096       -2.36640
C         -3.00121       -2.61902       -1.21822
H         -3.99671       -3.07914       -1.14696
H         -2.90159       -2.31119       -2.26717
C         -2.39576        2.31169        0.02642
H         -2.83887        1.86794        0.92790
H         -1.33326        2.44555        0.26841
C          2.56121       -2.51326        1.35399
H          2.16256       -3.27658        2.02638
H          2.16583       -1.55414        1.68433
H          3.64027       -2.48578        1.51030
C          1.72505        3.21138       -0.59624
H          0.77859        2.67074       -0.58118
H          1.54250        4.17864       -1.06982
H          1.99988        3.39938        0.44336
C         -1.94158       -3.64680       -0.85102
H         -1.95820       -4.51129       -1.51863
H         -2.08606       -4.01503        0.16660
H         -0.94069       -3.21963       -0.89130
C         -3.02695        3.66531       -0.26630
H         -2.89254        4.36509        0.56175
H         -2.58555        4.12067       -1.15489
H         -4.09937        3.57974       -0.44725
Cl        -1.56624        0.07049        2.41802
Pd         0.04026        0.09257        0.85559
