111
-148.55825944
P         -2.37287        2.18926        0.72337
P          0.07370        0.20048        0.47639
C         -1.42841        1.74527        2.20290
C         -0.36004        0.88411        2.08696
C         -2.82330        3.98321        0.71917
C         -1.96841        4.75985       -0.25851
C         -1.77679        2.24944        3.43955
H         -2.62329        2.91085        3.52634
C         -1.04446        1.89310        4.55892
H         -1.31446        2.28674        5.52523
C          0.02921        1.03148        4.43957
H          0.59853        0.75291        5.31102
C          0.37036        0.52208        3.19936
H          1.20195       -0.15626        3.08936
Pd        -1.19657        1.36533       -1.08066
Cl        -2.74532        2.30370       -2.40224
Cl         0.04877        0.43489       -2.69623
C         -4.32524        3.95449        0.37968
C         -4.05714        1.42368        0.68698
H         -0.90768        4.68090       -0.00804
H         -2.09429        4.37671       -1.27240
H         -2.23711        5.81875       -0.27057
H         -4.44146        4.04866       -0.70890
H         -4.83278        4.83205        0.80845
H         -4.17095        0.98814       -0.31468
C         -4.99487        2.63419        0.85778
C         -4.19914        0.36258        1.75796
H         -2.66915        4.34809        1.74262
H         -5.26490        2.72528        1.91883
H         -5.94319        2.46094        0.32680
H         -5.18961       -0.09799        1.73621
H         -3.45314       -0.42664        1.63833
H         -4.05754        0.79392        2.75052
C         -1.33417       -4.13402        0.38043
C         -2.08045       -3.12989       -0.29114
C         -1.63065       -1.82260       -0.21796
C         -0.44386       -1.51217        0.39415
C          0.34318       -2.49610        0.93416
C         -0.05407       -3.82372        0.91128
O         -1.90196       -5.41691        0.59111
C         -3.34025       -3.40919       -1.12912
H         -2.21803       -1.02900       -0.64575
H          1.27679       -2.21318        1.39022
C          0.92084       -4.87939        1.46017
C          4.42550        0.96078       -0.62977
C          3.76526       -0.18707       -1.13777
C          2.44393       -0.39654       -0.77838
C          1.80622        0.44350        0.09602
C          2.47095        1.49782        0.66669
C          3.79687        1.75736        0.36125
O          5.69387        1.33965       -1.14440
C          4.43506       -1.16553       -2.11485
H          1.87836       -1.20575       -1.20690
H          1.93031        2.12958        1.35030
C          4.51587        2.91138        1.07741
C         -3.21905       -2.68314       -2.48796
C         -3.51973       -4.90659       -1.43315
C         -4.58051       -2.88313       -0.38868
C          0.52999       -6.31010        1.05009
C          2.33238       -4.62030        0.89100
C          0.96862       -4.78051        2.99371
C         -2.66989       -5.48794        1.78091
H         -3.20277       -1.60095       -2.37009
H         -2.30430       -2.97834       -3.00101
H         -4.06144       -2.92589       -3.13503
H         -2.62290       -5.31423       -1.89833
H         -3.71094       -5.47304       -0.52482
H         -4.35901       -5.07285       -2.10806
H         -4.69281       -3.36194        0.58223
H         -4.50866       -1.80886       -0.22497
H         -5.48642       -3.07248       -0.96389
H         -0.41324       -6.60625        1.50292
H          0.41888       -6.38305       -0.03121
H          1.28601       -7.02941        1.36411
H          2.73385       -3.66431        1.22262
H          3.02936       -5.39384        1.21246
H          2.30998       -4.62067       -0.19828
H          1.28436       -3.78692        3.31038
H         -0.00977       -4.97274        3.43012
H          1.66976       -5.50394        3.40905
H         -2.04286       -5.26836        2.64364
H         -3.48302       -4.76472        1.74507
H         -3.08391       -6.49136        1.88223
C          5.62355        2.21682       -2.26184
C          4.14916       -0.71228       -3.55464
C          5.95336       -1.24888       -1.87376
C          3.87531       -2.59274       -1.92464
C          3.95367        3.09896        2.50530
C          6.02110        2.62299        1.22347
C          4.30012        4.21269        0.29011
H          4.54473        0.28368       -3.73967
H          4.59909       -1.39373       -4.27609
H          3.07599       -0.68118       -3.74173
H          6.41278       -1.99376       -2.52306
H          6.44063       -0.29748       -2.07041
H          6.16304       -1.52382       -0.84060
H          2.82808       -2.66035       -2.21490
H          4.42357       -3.30839       -2.53688
H          3.96664       -2.90391       -0.88486
H          3.97494        2.15923        3.05662
H          4.54460        3.82655        3.06119
H          2.92810        3.46479        2.49117
H          6.18225        1.67956        1.74399
H          6.50842        2.55610        0.25400
H          6.51825        3.41142        1.78802
H          4.70444        4.13628       -0.71637
H          4.78591        5.05340        0.78474
H          3.23765        4.43936        0.20406
H          4.58434        2.45265       -2.49467
H          6.16460        3.13639       -2.03927
H          6.09133        1.74750       -3.12709
