72
-108.39245135
Cl        -1.93365        0.67951        2.65154
Cl         0.78057       -1.04225        2.79737
P          1.14047       -1.07852       -0.22172
P         -2.20871        0.16160       -0.48353
C         -3.26451       -1.41005       -0.33736
C         -3.72280       -1.58735        1.11178
C         -4.47042       -1.30688       -1.26460
C         -3.25905        1.73255       -0.23944
C         -4.29632        1.59116        0.87072
C         -1.34004        0.45660       -2.13439
C         -1.36165       -0.70283       -3.10924
C          1.20904        0.25893       -1.45347
C          0.07213        0.99454       -2.00297
C          0.61985        2.06261       -2.83968
C          2.06607        1.96959       -2.81670
C          2.42956        0.84935       -1.97056
C         -2.42052       -2.62331       -0.70482
H         -2.87519       -1.60386        1.79673
H         -4.39794       -0.79926        1.43297
H         -4.17124       -1.10222       -2.29133
H         -5.15199       -0.51901       -0.94845
C         -2.26941        2.82676        0.12469
H         -4.76485        2.55436        1.07770
H         -3.84548        1.24848        1.79938
H         -1.93120        1.26280       -2.57809
H         -0.72386       -1.50883       -2.75493
H         -0.96565       -0.40217       -4.08144
H         -2.36516       -1.09269       -3.27401
H          0.03302        2.74474       -3.45700
H          2.75959        2.60777       -3.36830
Pd        -0.57480       -0.28757        1.16602
H          3.44149        0.51013       -1.73933
C         -3.97884        2.10317       -1.54306
H         -5.09458        0.90676        0.58988
H         -1.47476        2.89152       -0.61994
H         -2.76269        3.79945        0.17875
H         -1.82183        2.62881        1.09797
H         -4.46235        1.24050       -1.99833
H         -4.74994        2.85176       -1.35347
H         -3.30067        2.54087       -2.27497
H         -4.25744       -2.53109        1.23088
H         -5.03518       -2.24061       -1.26462
H         -1.53487       -2.67670       -0.07418
H         -2.98386       -3.54590       -0.55510
H         -2.10626       -2.60898       -1.74474
C          2.80683       -1.25937        0.46694
C          3.69894       -2.15542       -0.06985
C          4.88188       -2.04783        0.66275
C          4.66289       -1.08576        1.61739
O          3.39591       -0.59212        1.50448
H          3.50820       -2.81331       -0.90333
H          5.78821       -2.61062        0.50994
H          5.37885       -0.75469        2.35958
C          0.72437       -2.70019       -0.88481
C          0.71202       -3.81258       -0.08042
C          0.37093       -4.89783       -0.88959
C          0.18999       -4.39935       -2.15677
O          0.40109       -3.04958       -2.16726
H          0.92945       -3.82711        0.97628
H          0.27131       -5.92541       -0.58034
H         -0.08230       -4.97820       -3.03056
Fe         1.35145        2.21496       -0.88260
C          2.15277        4.02040       -0.35894
C          3.01370        2.93665        0.07855
C          2.23247        2.07757        0.94809
C          0.91207        2.65050        1.09396
C          0.85442        3.84055        0.26530
H          2.44189        4.84534       -1.01430
H          4.05839        2.78685       -0.20360
H          2.57780        1.15339        1.41164
H          0.12162        2.25628        1.73500
H          0.01138        4.53068        0.18738
