75
-122.81281528
P          1.80703       -0.62374        0.09196
C          3.11824       -1.33028       -0.92182
C          4.40440       -1.32431       -0.43125
C          5.42860       -1.88158       -1.17531
C          5.15498       -2.45109       -2.40273
C          3.86080       -2.47100       -2.88303
C          2.83918       -1.91347       -2.13649
H          1.82474       -1.93054       -2.50029
H          3.64586       -2.91935       -3.83910
H          5.95189       -2.88442       -2.98482
H          6.43692       -1.87359       -0.79519
H          4.59960       -0.89805        0.54040
C          1.77272       -1.58369        1.61665
C          1.42712       -0.99004        2.80887
C          1.49203       -1.71191        3.98584
C          1.89719       -3.03142        3.96043
C          2.23401       -3.62873        2.76198
C          2.17385       -2.90021        1.58761
H          2.45053       -3.34953        0.64721
H          2.54734       -4.65952        2.74083
H          1.94368       -3.59782        4.87619
H          1.21780       -1.24719        4.91858
H          1.08881        0.03216        2.81010
C          2.16964        1.09461        0.50459
C          3.33999        1.74250        0.18536
C          3.50392        3.08973        0.47520
C          2.44954        3.78011        1.07163
C          1.26584        3.14824        1.38145
C          1.12030        1.78119        1.09720
O         -0.08039        1.10420        1.36365
C         -1.26015        1.79381        1.04073
C         -1.41871        3.15512        1.34499
C         -2.59610        3.78979        1.01530
C         -3.62902        3.11210        0.36816
C         -3.44257        1.77772        0.03360
C         -2.27722        1.13092        0.37117
P         -1.89948       -0.54279       -0.15912
C         -1.60602       -1.61779        1.24969
C         -1.23115       -2.92128        1.01733
C         -1.11805       -3.80137        2.07871
C         -1.38897       -3.36977        3.36215
C         -1.76711       -2.06109        3.58887
C         -1.87853       -1.18311        2.52652
H         -2.18055       -0.16061        2.68496
H         -1.97415       -1.72335        4.59094
H         -1.29810       -4.05419        4.18971
H         -0.82014       -4.82185        1.90277
H         -1.04469       -3.24750        0.00597
C         -3.33390       -1.23908       -1.00910
C         -3.49533       -1.15526       -2.37235
C         -4.60737       -1.70993       -2.97590
C         -5.56281       -2.34278       -2.20668
C         -5.40758       -2.41802       -0.83713
C         -4.29033       -1.86317       -0.23917
H         -4.15653       -1.91743        0.82962
H         -6.15360       -2.90914       -0.23420
H         -6.43225       -2.77466       -2.67499
H         -4.73132       -1.64132       -4.04423
H         -2.76233       -0.63201       -2.95996
Pd         0.06355       -0.02837       -1.41414
Cl        -1.43347        1.02888       -2.73010
Cl         1.71253        0.96137       -2.59943
H         -4.20265        1.24868       -0.51488
C         -4.87585        3.82232       -0.02163
H         -5.73005        3.14397       -0.02313
H         -4.78132        4.24704       -1.02177
H         -5.09897        4.63520        0.67058
H         -2.71041        4.83314        1.25094
S         -0.08545        4.02153        2.13018
H          2.55319        4.82933        1.28502
C          4.75758        3.79534        0.09868
H          4.12341        1.20883       -0.32198
H          4.94184        4.64834        0.75300
H          5.61904        3.13004        0.17036
H          4.70019        4.16262       -0.92670
