59
-75.79783277
Cl         1.68794        0.60326        2.30029
P          1.54946       -0.10085       -0.83300
P         -1.60506        0.16177       -0.78861
C          0.61578       -0.26175       -2.42551
H          1.24383        0.08670       -3.24989
H          0.47201       -1.33299       -2.58417
C         -0.71157        0.45263       -2.37882
H         -1.36667        0.15972       -3.20440
H         -0.57783        1.53360       -2.45682
C          2.48599       -1.67209       -0.52691
H          2.45468       -2.23668       -1.46671
C          2.95824        1.10882       -0.80177
H          2.91332        1.58723        0.18457
C         -2.40954       -1.49895       -0.60670
H         -2.22038       -1.81223        0.42771
C         -3.10300        1.24867       -0.71481
H         -3.24002        1.63457       -1.73248
C          3.91790       -1.19003       -0.23888
H          4.05440       -1.11774        0.84881
H          4.65189       -1.93558       -0.58030
C          4.19350        0.19497       -0.88350
H          4.46531        0.06155       -1.93982
H          5.06183        0.68194       -0.41376
C         -3.90303       -1.18064       -0.79453
H         -4.16214       -1.30912       -1.85454
H         -4.52238       -1.90784       -0.24755
C         -4.23473        0.27049       -0.35178
H         -4.38462        0.29309        0.73644
H         -5.18771        0.60708       -0.78757
C          1.85931       -2.48906        0.59713
H          0.78897       -2.62677        0.39118
H          1.89982       -1.90348        1.52504
C          2.90092        2.17525       -1.89105
H          3.88347        2.66168       -1.96643
H          2.74845        1.68837       -2.86210
C         -1.85797       -2.54026       -1.57176
H         -1.99929       -2.18255       -2.59980
H         -0.77190       -2.61721       -1.43409
C         -2.94655        2.40507        0.26561
H         -3.89840        2.95046        0.33061
H         -2.78064        1.99719        1.27052
C          2.53047       -3.83913        0.79818
H          2.06395       -4.41251        1.60249
H          3.58655       -3.72374        1.04845
H          2.47879       -4.44357       -0.10940
C          1.82902        3.22208       -1.63862
H          1.77822        3.96235       -2.44033
H          2.01270        3.75858       -0.70566
H          0.84564        2.76349       -1.55110
C         -2.49502       -3.91065       -1.39684
H         -2.07347       -4.64912       -2.08271
H         -3.57103       -3.87498       -1.57613
H         -2.35027       -4.28490       -0.38156
C         -1.82119        3.35820       -0.10215
H         -1.75101        4.19774        0.59320
H         -0.85698        2.84918       -0.09271
H         -1.96134        3.76946       -1.10354
Cl        -1.61306        0.25780        2.39317
Pd         0.01543        0.24988        0.85196
