58
-89.86836014
P          1.51960        0.20213        0.84924
C          1.58505        1.94777        0.42438
C          1.54318        2.92425        1.39380
C          1.58452        4.25719        1.02642
C          1.67282        4.60292       -0.30777
C          1.72788        3.62013       -1.27593
C          1.68723        2.28938       -0.90452
H          1.74138        1.50516       -1.64238
H          1.47919        2.64525        2.43271
C          3.14352       -0.55060        0.70951
C          3.26964       -1.91448        0.57781
C          4.52719       -2.48082        0.47054
C          5.64940       -1.67650        0.49795
C          5.51803       -0.30832        0.63109
C          4.25904        0.25516        0.73721
H          4.13918        1.32216        0.83736
H          2.38584       -2.53083        0.54233
C          0.90413       -0.07364        2.56565
C          0.16593       -1.40131        2.69573
C         -1.32103       -1.31983        2.38337
P         -1.72336       -0.62214        0.72402
C         -3.24490       -1.36092        0.12545
C         -3.29837       -2.72085       -0.07663
C         -4.46478       -3.30080       -0.54329
C         -5.56903       -2.51309       -0.80271
C         -5.51031       -1.14857       -0.59832
C         -4.34247       -0.57168       -0.13286
H         -4.28051        0.49241        0.02773
H         -2.42354       -3.32124        0.11822
C         -1.83527        1.17680        0.70542
C         -1.88241        1.92345        1.86031
C         -1.92673        3.30347        1.78543
C         -1.92827        3.92890        0.55461
C         -1.89252        3.17747       -0.60240
C         -1.84845        1.79775       -0.52332
H         -1.81704        1.19480       -1.41761
H         -1.89525        1.43279        2.81882
Pd         0.09052       -0.75146       -0.71636
Cl         1.88486       -0.79229       -2.07355
Cl        -1.30935       -1.57804       -2.26039
H         -1.78087       -2.31029        2.42513
H         -1.84286       -0.71110        3.12316
H          0.64108       -2.13800        2.03369
H          0.29742       -1.80469        3.71203
H          1.78799       -0.03399        3.20765
H          0.26365        0.75830        2.85787
H          1.54419        5.02490        1.78160
H          1.80231        3.88755       -2.31710
H          4.62940       -3.54794        0.36062
H          6.39320        0.32013        0.64967
H         -4.50846       -4.36479       -0.70835
H         -6.37093       -0.53331       -0.80338
H         -1.95741        3.89067        2.68855
H         -1.89157        3.66294       -1.56439
H          1.70137        5.64174       -0.59359
H          6.62930       -2.11713        0.41207
H         -6.47729       -2.96377       -1.16833
H         -1.95589        5.00481        0.49704
