105
-153.05938886
Cl         0.28754        3.25854        2.30545
Pd        -0.18633        1.79414        0.66285
P         -0.67563        0.41914       -1.22087
N          0.45349       -0.86114       -1.67107
C          0.47755       -2.23581       -1.38938
C         -0.03152       -2.83220       -0.19847
C          0.21325       -4.20281        0.03865
C         -0.09846       -4.79655        1.39316
C         -0.33468       -6.31198        1.34402
C          0.84804       -7.00735        0.66301
C          1.05471       -6.47749       -0.76675
C          0.84189       -4.98970       -0.93074
C          1.29371       -4.39121       -2.09901
C          1.14291       -3.04600       -2.30855
H          1.52938       -2.59153       -3.20451
H          1.78777       -4.99825       -2.83884
H          2.06418       -6.72735       -1.11744
H          1.75723       -6.83219        1.25194
H         -0.50798       -6.71895        2.35031
H          0.74422       -4.57925        2.06056
C         -0.65579       -2.03113        0.89163
C          0.17258       -1.15865        1.64831
C         -0.34906       -0.51971        2.77228
C         -1.65874       -0.71064        3.12979
C         -2.49743       -1.54417        2.39537
C         -3.92251       -1.70773        2.87257
C         -4.82040       -2.58436        1.97953
C         -4.02805       -3.72470        1.33219
C         -2.87788       -3.15317        0.49331
C         -1.99413       -2.21785        1.27878
H         -2.28404       -3.95974        0.04833
H         -4.68131       -4.36574        0.72340
H         -5.26584       -1.96613        1.19069
H         -4.36525       -0.70997        2.98590
H         -2.05790       -0.19912        3.98920
H          0.27656        0.16020        3.32231
N          1.42368       -0.83857        1.11278
P          1.90085        0.83194        1.07832
C          2.73301        1.14938       -0.47822
C          2.45449        2.30447       -1.17052
C          2.93008        2.46335       -2.45850
C          3.68385        1.46575       -3.06127
C          3.96087        0.31031       -2.34327
C          3.49117        0.15518       -1.05118
H          3.67417       -0.75605       -0.50331
H          4.53522       -0.47337       -2.80738
C          4.14308        1.61023       -4.47021
H          2.69447        3.35512       -3.01390
H          1.84188        3.06622       -0.71464
C          2.85685        1.30407        2.51218
C          3.06401        0.37269        3.50103
C          3.79555        0.71416        4.62456
C          4.31820        1.99342        4.76258
C          4.10798        2.91500        3.74498
C          3.37689        2.57102        2.62215
H          3.20258        3.28626        1.83391
H          4.51905        3.90566        3.83836
C          5.12501        2.35888        5.95973
H          3.96521       -0.01241        5.40065
H          2.65654       -0.61871        3.38262
H          1.35870       -0.95006        0.10213
H          1.29406       -0.42156       -2.03293
C         -0.54206        1.63278       -2.54200
C         -0.99721        2.91872       -2.37452
C         -0.85797        3.84043       -3.39414
C         -0.26260        3.47981       -4.59514
C          0.16350        2.16916       -4.76033
C          0.02351        1.25056       -3.73570
H          0.35475        0.23343       -3.86497
H          0.60881        1.87304       -5.69472
C         -0.12445        4.46750       -5.70072
H         -1.21254        4.84847       -3.26282
H         -1.46769        3.19383       -1.44590
C         -2.32186       -0.27512       -1.40388
C         -3.41754        0.16958       -0.70403
C         -4.66702       -0.36031       -0.96094
C         -4.83551       -1.33336       -1.93646
C         -3.72171       -1.76780       -2.64241
C         -2.47154       -1.23519       -2.37760
H         -1.60357       -1.56716       -2.92499
H         -3.83669       -2.52943       -3.39445
C         -6.17494       -1.93420       -2.18414
H         -5.52380       -0.01325       -0.40897
H         -3.29788        0.95246        0.02355
Cl        -2.25709        2.66295        0.57196
H          0.37336       -6.99722       -1.45106
H         -1.25243       -6.51742        0.77877
H          0.70719       -8.09745        0.65912
H         -0.95700       -4.29274        1.84918
H         -3.61905       -4.37495        2.11550
H         -3.29081       -2.60381       -0.35617
H         -3.89471       -2.12892        3.88477
H         -5.67093       -2.98042        2.55191
H          5.11535        1.13791       -4.61719
H          3.43462        1.14480       -5.15692
H          4.23937        2.66068       -4.74823
H          6.18602        2.17894        5.78146
H          4.99960        3.41293        6.21133
H          4.82583        1.77367        6.83038
H          0.00300        5.47854       -5.31134
H          0.74198        4.24186       -6.32405
H         -1.00932        4.46117       -6.33856
H         -6.97054       -1.21055       -2.00159
H         -6.26883       -2.27616       -3.21574
H         -6.34178       -2.79045       -1.52903
