59
-75.79939738
Cl         1.45430        0.60668        2.35430
P          1.54764       -0.08954       -0.74051
P         -1.66251       -0.15488       -0.86579
C          0.63954        0.38088       -2.28250
H          0.44690        1.45465       -2.25031
H          1.29989        0.19961       -3.13598
C         -0.64619       -0.39293       -2.39125
H         -0.44373       -1.45984       -2.50398
H         -1.24147       -0.08821       -3.25735
C          2.29421       -1.76350       -1.02627
H          1.67810       -2.22502       -1.80881
C          3.13667        0.85061       -0.59489
H          3.48285        0.72531        0.43778
C         -2.82822       -1.55025       -0.48654
H         -2.75401       -1.71092        0.59624
C         -2.89334        1.22096       -1.08471
H         -2.90224        1.44995       -2.15725
C          3.70916       -1.45610       -1.57340
H          4.45022       -2.00673       -0.97975
H          3.81915       -1.85719       -2.59205
C          4.04562        0.06611       -1.55736
H          3.91802        0.48443       -2.56631
H          5.10454        0.23283       -1.30598
C         -4.20407       -0.96263       -0.84137
H         -4.43866       -1.21475       -1.88482
H         -4.99129       -1.44020       -0.23808
C         -4.22616        0.57690       -0.66263
H         -4.41333        0.81647        0.39328
H         -5.06283        1.02603       -1.21908
C          2.27984       -2.62871        0.23501
H          2.61495       -3.64268       -0.02486
H          1.24327       -2.74472        0.57773
C          2.99967        2.33569       -0.91298
H          3.99763        2.75742       -1.09722
H          2.46113        2.45073       -1.86190
C         -2.50986       -2.84593       -1.22488
H         -3.35956       -3.53494       -1.12018
H         -2.44331       -2.63537       -2.30003
C         -2.56004        2.47735       -0.28554
H         -3.43421        3.14327       -0.28951
H         -2.41595        2.19978        0.76639
C          3.12357       -2.09372        1.38250
H          3.05472       -2.72857        2.26892
H          2.80183       -1.09599        1.67700
H          4.17939       -2.02457        1.11799
C          2.30884        3.11335        0.19690
H          1.33613        2.68409        0.43621
H          2.15417        4.16184       -0.06740
H          2.89428        3.08847        1.11798
C         -1.24027       -3.51562       -0.72843
H         -0.38338       -2.85155       -0.83062
H         -1.01456       -4.43201       -1.27856
H         -1.31805       -3.77598        0.32895
C         -1.34483        3.22275       -0.80745
H         -0.45502        2.59779       -0.75992
H         -1.47741        3.51754       -1.85016
H         -1.13890        4.12800       -0.23163
Cl        -1.85568        0.27824        2.27570
Pd        -0.13676        0.15219        0.84239
