171
-217.83718121
P         -1.73683        0.63092       -0.13649
P          1.50545       -0.28278       -0.32731
C         -1.00986        1.72033       -1.38696
C          0.72150       -1.00850       -1.77822
C         -0.16747        1.24935       -2.39190
C          0.51486        2.17840       -3.20094
C          0.28153        3.53110       -3.02536
C         -0.58786        3.98038       -2.05550
C         -1.21739        3.07063       -1.22908
C          0.84613       -2.35733       -2.01076
C          0.26546       -2.93355       -3.12309
C         -0.46397       -2.15309       -3.99308
C         -0.63387       -0.79855       -3.76173
C         -0.01598       -0.20808       -2.64157
Cl         1.80797        1.14148        2.60919
Cl        -1.30710        0.49896        3.13054
C         -1.45161        0.01444       -4.70417
C          1.49526        1.74170       -4.23349
H         -0.76201        5.03666       -1.92992
H         -1.87825        3.42102       -0.45410
H          1.38710       -2.97217       -1.31233
H          0.38041       -3.98848       -3.31083
H          0.79229        4.23462       -3.66110
H         -0.91348       -2.59669       -4.86508
C         -2.95439       -3.55591       -1.33806
C         -1.99940       -3.39843       -0.34169
C         -1.64185       -2.10382        0.01139
C         -2.19778       -1.02662       -0.63670
C         -3.13184       -1.19971       -1.62779
C         -3.53978       -2.47775       -1.99066
H         -3.26275       -4.55001       -1.60475
H         -0.92267       -1.92716        0.79140
H         -3.54028       -0.32813       -2.11046
C         -5.09452        2.66931        2.12583
C         -5.40005        1.58665        1.31035
C         -4.35760        0.97859        0.62213
C         -3.07167        1.44272        0.74969
C         -2.78903        2.51121        1.56376
C         -3.79909        3.14887        2.27163
H         -5.88717        3.14537        2.67332
H         -4.53937        0.12756       -0.00907
H         -1.76366        2.82239        1.66963
C          3.82493       -3.56727        1.82939
C          2.94646       -2.78658        2.56987
C          2.24353       -1.79290        1.90477
C          2.42535       -1.56586        0.56168
C          3.32025       -2.33386       -0.14397
C          4.02606       -3.36023        0.47015
H          4.36876       -4.34913        2.32331
H          1.56288       -1.17570        2.46040
H          3.45359       -2.15172       -1.19644
C          4.29640        3.08101       -1.52361
C          3.23263        3.35723       -0.67427
C          2.39603        2.30722       -0.32127
C          2.62490        1.03803       -0.79186
C          3.67890        0.78424       -1.63356
C          4.53763        1.80528       -2.02111
H          4.95523        3.88480       -1.79307
H          1.55518        2.47626        0.32716
H          3.83286       -0.21700       -1.99487
Pd         0.05677        0.53932        1.33597
C         -0.30008       -4.23755        1.35464
C         -1.40855       -4.62993        0.35975
C         -0.79891       -5.58450       -0.68362
C         -2.52818       -5.35123        1.13087
H         -0.69253       -3.59802        2.14453
H          0.12725       -5.12249        1.82568
H          0.50902       -3.70930        0.85186
H         -0.37954       -6.46840       -0.20328
H         -1.54467       -5.91973       -1.40306
H          0.00212       -5.09279       -1.23334
H         -2.14100       -6.22383        1.65668
H         -2.97838       -4.68521        1.86679
H         -3.31623       -5.68767        0.45797
C         -5.15453       -1.40119       -3.63838
C         -4.62935       -2.72259       -3.04412
C         -5.81003       -3.46020       -2.38546
C         -4.05537       -3.57814       -4.18762
H         -4.35533       -0.84380       -4.12508
H         -5.92525       -1.59215       -4.38500
H         -5.59342       -0.77050       -2.86588
H         -6.61313       -3.62993       -3.10242
H         -5.50296       -4.42906       -1.99344
H         -6.21397       -2.87736       -1.55783
H         -3.21985       -3.06921       -4.66593
H         -3.69730       -4.54015       -3.82308
H         -4.81180       -3.77002       -4.94842
C         -6.96891       -0.11106        0.24416
C         -6.84812        1.08688        1.20729
C         -7.74391        2.22448        0.68376
C         -7.33078        0.64292        2.60024
H         -6.64794        0.16134       -0.76087
H         -6.36476       -0.95183        0.58471
H         -8.00171       -0.45303        0.17888
H         -7.73551        3.07888        1.35948
H         -7.40015        2.56626       -0.29238
H         -8.77660        1.89168        0.58057
H         -8.35127        0.26273        2.55704
H         -6.69192       -0.14728        2.99419
H         -7.31296        1.47092        3.30792
C         -4.32934        5.54987        2.77059
C         -3.51081        4.32429        3.21552
C         -2.01650        4.70598        3.20681
C         -3.90297        3.92582        4.64972
H         -4.12733        6.40747        3.41211
H         -4.07952        5.82772        1.74675
H         -5.39914        5.34865        2.81134
H         -1.69089        4.99594        2.20787
H         -1.82826        5.54791        3.87273
H         -1.39739        3.87512        3.54486
H         -3.34564        3.04498        4.96810
H         -3.69098        4.73242        5.35127
H         -4.96482        3.69261        4.71911
C          3.21591       -1.63671        4.77626
C          2.76822       -2.94020        4.08816
C          3.60844       -4.10441        4.64658
C          1.28771       -3.20916        4.41473
H          4.25660       -1.41523        4.54104
H          2.61324       -0.79027        4.44893
H          3.12228       -1.71396        5.85920
H          3.32245       -5.04997        4.18612
H          4.67161       -3.94092        4.47158
H          3.46384       -4.20400        5.72230
H          1.13870       -3.30795        5.48974
H          0.64880       -2.39888        4.06567
H          0.95191       -4.13260        3.94489
C          5.71602       -5.26530        0.49004
C          4.95845       -4.23989       -0.37515
C          5.99222       -3.35227       -1.09367
C          4.11749       -5.00103       -1.41699
H          6.38715       -5.86714       -0.12266
H          6.31893       -4.76738        1.24927
H          5.02597       -5.94705        0.98679
H          6.56044       -2.76304       -0.37419
H          6.69556       -3.95743       -1.66543
H          5.51031       -2.66410       -1.78670
H          4.74469       -5.65337       -2.02428
H          3.36268       -5.61642       -0.92756
H          3.60338       -4.31331       -2.08768
C          2.85689        5.76185       -1.29416
C          3.02796        4.77614       -0.12444
C          4.25678        5.17241        0.71377
C          1.77723        4.86266        0.77436
H          1.99884        5.48728       -1.90598
H          2.69843        6.77635       -0.92884
H          3.73643        5.77276       -1.93665
H          4.40240        4.47158        1.53563
H          5.16365        5.17327        0.11015
H          4.13585        6.16942        1.13697
H          1.63871        5.87663        1.14902
H          0.87779        4.58934        0.22385
H          1.86705        4.20270        1.63701
C          6.46689        2.75982       -3.38078
C          5.73923        1.48171       -2.92099
C          5.26587        0.72071       -4.17481
C          6.72769        0.60693       -2.12968
H          7.28952        2.51563       -4.05286
H          5.78816        3.42483       -3.91473
H          6.88730        3.30110       -2.53357
H          4.79027       -0.22404       -3.91515
H          4.54846        1.31492       -4.73959
H          6.10550        0.49632       -4.83247
H          7.07748        1.12965       -1.23967
H          6.25679       -0.32046       -1.80663
H          7.59641        0.35032       -2.73567
H         -1.96783        0.82146       -4.18191
H          1.75353        0.68788       -4.12120
H         -2.20837       -0.59684       -5.19772
H         -0.82658        0.45862       -5.47961
H          2.41899        2.31646       -4.15093
H          1.09791        1.88901       -5.23860
