59
-75.79807136
Cl         1.32297        0.54208        2.45416
P          1.47148        0.01891       -0.83259
P         -1.74215       -0.20486       -0.79856
C          0.44894        0.34336       -2.34012
H          0.14661        1.39290       -2.34099
H          1.07266        0.18275       -3.22503
C         -0.75803       -0.55142       -2.32129
H         -0.45811       -1.60222       -2.30695
H         -1.40186       -0.40367       -3.19384
C          2.58742       -1.42022       -1.17095
H          2.30226       -1.77444       -2.17121
C          2.73140        1.33112       -0.47881
H          2.46226        1.77717        0.48695
C         -3.08488       -1.44122       -0.49064
H         -3.15493       -1.54513        0.59923
C         -2.77398        1.32155       -1.03057
H         -2.61318        1.64532       -2.06591
C          3.98931       -0.78021       -1.20596
H          4.73609       -1.50344       -0.84775
H          4.27297       -0.56015       -2.24590
C          4.04624        0.53152       -0.37464
H          4.89060        1.15364       -0.70243
H          4.25350        0.29217        0.67836
C         -4.33004       -0.72214       -1.03424
H         -4.43373       -0.95220       -2.10391
H         -5.24011       -1.11652       -0.55623
C         -4.21775        0.81361       -0.83827
H         -4.54757        1.07131        0.17758
H         -4.90494        1.34631       -1.51279
C          2.43098       -2.55728       -0.16203
H          2.99389       -3.43175       -0.51787
H          1.38134       -2.87678       -0.15058
C          2.74144        2.40982       -1.55729
H          3.03782        1.95262       -2.51059
H          1.71691        2.77106       -1.71552
C         -2.81161       -2.79975       -1.12343
H         -3.72513       -3.40893       -1.07832
H         -2.61148       -2.66034       -2.19363
C         -2.40047        2.44215       -0.06226
H         -3.19895        3.19729       -0.07109
H         -2.39861        2.03793        0.95859
C          2.87480       -2.21382        1.25071
H          3.94338       -1.99866        1.29612
H          2.67996       -3.02968        1.95065
H          2.35455       -1.33382        1.62585
C          3.64676        3.58841       -1.22609
H          4.68900        3.28247       -1.12523
H          3.35593        4.05335       -0.28215
H          3.60932        4.36141       -1.99719
C         -1.66228       -3.53534       -0.45374
H         -1.44610       -4.49107       -0.93650
H         -1.88154       -3.73774        0.59641
H         -0.75036       -2.93926       -0.47652
C         -1.06770        3.10653       -0.37126
H         -1.05767        3.52236       -1.38050
H         -0.84684        3.92152        0.32178
H         -0.24249        2.39807       -0.30548
Cl        -1.77364       -0.23946        2.36022
Pd        -0.12601       -0.04107        0.84068
