111
-148.55120833
P         -2.58279        2.03614        1.02542
P          0.08003        0.42338        0.48761
C         -1.49496        1.60779        2.41412
C         -0.30319        0.96361        2.16221
C         -3.45569        3.64167        1.33180
C         -2.79412        4.80981        0.63425
C         -1.84420        1.91743        3.71357
H         -2.78715        2.39811        3.91404
C         -0.99084        1.59157        4.75377
H         -1.26374        1.83372        5.76795
C          0.20795        0.95512        4.49538
H          0.87074        0.69945        5.30565
C          0.55066        0.63479        3.19423
H          1.47203        0.11798        2.97475
Pd        -1.35614        1.60421       -0.89399
Cl        -2.63517        3.06095       -2.01041
Cl        -0.05873        0.97611       -2.61999
C         -4.89058        3.32956        0.87179
C         -4.04097        0.90971        0.82762
H         -2.80286        4.67547       -0.44700
H         -3.31048        5.74785        0.85041
H         -1.75169        4.91674        0.94289
H         -4.97643        3.56298       -0.19857
H         -5.60998        3.99067        1.37892
H         -4.04003        0.59277       -0.22394
C         -5.24328        1.83268        1.10776
C         -3.93686       -0.28607        1.74922
H         -3.44022        3.79609        2.41787
H         -5.55977        1.69325        2.15046
H         -6.10733        1.53257        0.49591
H         -3.04580       -0.87783        1.52979
H         -3.86947        0.03291        2.79104
H         -4.80726       -0.93977        1.65651
C         -1.15026       -3.93148       -0.04820
C         -1.04115       -3.39038        1.25852
C         -0.66206       -2.06537        1.39053
C         -0.46876       -1.27231        0.29028
C         -0.67336       -1.76428       -0.97067
C         -1.05611       -3.07748       -1.17640
O         -1.30993       -5.33142       -0.22634
C         -1.28502       -4.22674        2.52393
H         -0.49777       -1.63600        2.36271
H         -0.50909       -1.10078       -1.80089
C         -1.32481       -3.55559       -2.61133
C          4.47734        0.66450       -0.65604
C          3.89970       -0.58227       -0.30513
C          2.55746       -0.60789        0.03189
C          1.81939        0.54500        0.09512
C          2.39702        1.76435       -0.13986
C          3.73626        1.86226       -0.48235
O          5.78159        0.70947       -1.21652
C          4.68411       -1.90350       -0.32728
H          2.06013       -1.54114        0.23229
H          1.77783        2.64209       -0.06954
C          4.35065        3.25337       -0.70301
C         -1.79661       -3.33543        3.67896
C         -2.35881       -5.30210        2.27858
C          0.03394       -4.88339        2.95893
C         -0.00879       -4.04073       -3.23809
C         -2.37428       -4.68140       -2.63619
C         -1.88568       -2.39953       -3.47165
C         -0.08332       -6.04129       -0.34644
H         -2.08460       -3.94255        4.53689
H         -1.03219       -2.64022        4.02277
H         -2.66897       -2.76101        3.36889
H         -2.03592       -6.02159        1.53022
H         -2.57755       -5.85333        3.19279
H         -3.28415       -4.84681        1.92713
H          0.42137       -5.54051        2.18407
H          0.79225       -4.12727        3.16150
H         -0.10393       -5.47475        3.86376
H          0.72842       -3.23821       -3.25415
H          0.41560       -4.86779       -2.67376
H         -0.16477       -4.37655       -4.26291
H         -2.01997       -5.56663       -2.11428
H         -3.29606       -4.35679       -2.15458
H         -2.61066       -4.97435       -3.65882
H         -2.75008       -1.94256       -2.99058
H         -1.14065       -1.62425       -3.64322
H         -2.19972       -2.76217       -4.45003
H          0.76250       -5.35855       -0.25503
H         -0.02331       -6.80075        0.43299
H         -0.04250       -6.54223       -1.31345
C          5.80562        0.60087       -2.63438
C          4.56063       -2.54295       -1.71884
C          6.16492       -1.67642        0.02611
C          4.11765       -2.89198        0.71856
C          3.65070        4.30662        0.18571
C          5.84273        3.26919       -0.32397
C          4.17211        3.65804       -2.17426
H          5.09917       -3.48924       -1.76312
H          3.51604       -2.73711       -1.96173
H          4.96300       -1.89065       -2.49007
H          6.65802       -1.04956       -0.71250
H          6.25711       -1.18614        0.99467
H          6.70653       -2.62096        0.07096
H          4.75008       -3.77598        0.79726
H          4.06726       -2.42794        1.70323
H          3.12010       -3.23724        0.45034
H          4.16569        5.26529        0.12767
H          2.62165        4.47817       -0.12641
H          3.64593        3.99195        1.22898
H          6.42252        2.60976       -0.96481
H          6.26058        4.27113       -0.41885
H          5.98045        2.94023        0.70549
H          4.67099        2.95744       -2.83934
H          4.58380        4.64976       -2.35961
H          3.11620        3.67427       -2.44334
H          4.79130        0.51300       -3.02586
H          6.28507        1.48196       -3.06056
H          6.38492       -0.27529       -2.92508
