111
-148.56051222
P         -2.54972        2.24838        0.35365
P         -0.02150        0.35070        0.47030
C         -1.70334        1.98162        1.93207
C         -0.59649        1.16264        1.97483
C         -3.12334        3.99678        0.16457
C         -2.25909        4.75002       -0.82314
C         -2.16705        2.57586        3.08823
H         -3.04480        3.20016        3.05170
C         -1.51036        2.35495        4.28659
H         -1.87027        2.81951        5.19007
C         -0.39709        1.53754        4.32644
H          0.11385        1.36477        5.25934
C          0.05867        0.93577        3.16722
H          0.92277        0.29035        3.18335
Pd        -1.16787        1.37624       -1.26742
Cl        -2.60473        2.06571       -2.84358
Cl         0.28570        0.44761       -2.70326
C         -4.59239        3.82791       -0.26697
C         -4.16552        1.35438        0.24694
H         -2.28811        4.27380       -1.80454
H         -2.59915        5.78091       -0.94668
H         -1.21522        4.77245       -0.50087
H         -4.63939        3.83499       -1.36475
H         -5.19046        4.69214        0.05999
H         -4.17034        0.85035       -0.72860
C         -5.19760        2.49778        0.26630
C         -4.31241        0.35435        1.37421
H         -3.06625        4.45711        1.15905
H         -5.54579        2.64249        1.29824
H         -6.09213        2.21512       -0.30929
H         -3.50857       -0.38547        1.35728
H         -4.27126        0.85552        2.34299
H         -5.26569       -0.17625        1.31662
C         -1.16942       -4.05921        0.43632
C         -0.18135       -3.59018        1.33941
C          0.15137       -2.24562        1.30688
C         -0.51310       -1.37220        0.48575
C         -1.55183       -1.80129       -0.29912
C         -1.92597       -3.13372       -0.32630
O         -1.37485       -5.45426        0.26607
C          0.54401       -4.51575        2.32917
H          0.95062       -1.86221        1.91762
H         -2.06138       -1.08312       -0.91562
C         -3.10255       -3.56228       -1.21724
C          4.45994        0.79434       -0.21494
C          3.77017       -0.33506       -0.72427
C          2.40714       -0.42640       -0.49832
C          1.74705        0.51274        0.24904
C          2.42534        1.55646        0.82236
C          3.79204        1.70109        0.64796
O          5.80556        1.03792       -0.59858
C          4.46034       -1.42885       -1.55360
H          1.83032       -1.22774       -0.92747
H          1.86669        2.26555        1.40812
C          4.52070        2.84387        1.37282
C          0.93190       -3.74258        3.61032
C         -0.36190       -5.68070        2.76816
C          1.82489       -5.05735        1.67703
C         -4.13098       -2.41730       -1.36026
C         -2.57404       -3.91888       -2.61488
C         -3.85002       -4.76230       -0.60823
C         -0.53821       -6.04566       -0.72034
H          1.32986       -4.42011        4.36545
H          1.70018       -2.99610        3.41468
H          0.06451       -3.23876        4.03612
H          0.12884       -6.29664        3.52134
H         -1.29253       -5.30427        3.19149
H         -0.61409       -6.32563        1.93029
H          1.60242       -5.60890        0.76668
H          2.49651       -4.24093        1.41444
H          2.35605       -5.72505        2.35488
H         -3.72640       -1.57831       -1.92436
H         -5.01865       -2.75950       -1.89170
H         -4.44700       -2.05644       -0.38238
H         -2.06686       -3.06488       -3.06338
H         -1.86252       -4.73972       -2.56980
H         -3.38774       -4.21447       -3.27659
H         -4.18898       -4.53083        0.40101
H         -4.72156       -5.02600       -1.20684
H         -3.21176       -5.64062       -0.55247
H          0.09987       -5.29032       -1.18098
H          0.08241       -6.81518       -0.26166
H         -1.15418       -6.51722       -1.48591
C          5.93751        1.83962       -1.76581
C          5.92287       -1.62245       -1.11435
C          3.75028       -2.78857       -1.36149
C          4.39684       -1.04872       -3.04073
C          5.97084        2.45208        1.71047
C          4.50358        4.10044        0.48949
C          3.82135        3.17214        2.71200
H          6.51343       -0.72761       -1.29340
H          5.97667       -1.85060       -0.05038
H          6.39104       -2.44070       -1.66097
H          4.30862       -3.58891       -1.84653
H          3.66644       -3.03301       -0.30337
H          2.75115       -2.78897       -1.79461
H          4.90481       -0.10583       -3.22845
H          4.86472       -1.81327       -3.66029
H          3.36234       -0.93666       -3.36467
H          5.99334        1.53666        2.30079
H          6.55624        2.28246        0.81029
H          6.46592        3.23674        2.28204
H          3.47999        4.40177        0.26811
H          5.00109        4.93332        0.98572
H          5.00823        3.92390       -0.45730
H          3.70243        2.27393        3.31749
H          2.83813        3.61375        2.55688
H          4.40596        3.88901        3.28815
H          4.95506        2.12968       -2.14057
H          6.51656        2.73294       -1.53232
H          6.46949        1.28102       -2.53570
