111
-148.55773819
P         -2.46528        2.33333        0.24967
P         -0.02491        0.30407        0.44860
C         -1.68926        2.00405        1.85333
C         -0.63040        1.12708        1.93297
C         -2.91610        4.12168        0.10850
C         -2.39509        4.70327       -1.18732
C         -2.15542        2.62534        2.99431
H         -2.98580        3.30908        2.92681
C         -1.55668        2.36472        4.21491
H         -1.91983        2.84997        5.10611
C         -0.49613        1.48260        4.29214
H         -0.03032        1.27813        5.24207
C         -0.03309        0.85975        3.14704
H          0.79306        0.16736        3.19029
Pd        -1.15262        1.28534       -1.33105
Cl        -2.57957        1.93063       -2.93253
Cl         0.24334        0.15537       -2.67924
C         -4.45537        4.09929        0.21070
C         -4.13607        1.55621        0.07519
H         -2.82919        4.18273       -2.04262
H         -2.64754        5.76208       -1.28272
H         -1.30916        4.60546       -1.25940
H         -4.87347        4.93833       -0.36455
H         -4.76456        4.27161        1.25211
H         -4.06551        0.85209       -0.76475
C         -5.04574        2.74911       -0.28441
C         -4.53425        0.83013        1.34212
H         -2.46557        4.63578        0.96829
H         -6.04830        2.58636        0.13714
H         -5.18696        2.79377       -1.37437
H         -3.80291        0.06225        1.60618
H         -4.59727        1.52567        2.18079
H         -5.50940        0.34816        1.23887
C         -1.16051       -4.10735        0.46356
C         -0.08206       -3.65215        1.26837
C          0.24773       -2.30734        1.22083
C         -0.49998       -1.42125        0.48914
C         -1.63094       -1.83291       -0.16735
C         -2.00880       -3.16501       -0.17569
O         -1.33630       -5.49547        0.22991
C          0.72415       -4.55821        2.21470
H          1.10692       -1.93763        1.75512
H         -2.21740       -1.10274       -0.69714
C         -3.32037       -3.53650       -0.88755
C          4.46205        0.83387       -0.14865
C          3.80048       -0.29072       -0.70396
C          2.43553       -0.41172       -0.50498
C          1.74564        0.49395        0.25680
C          2.39631        1.53182        0.87155
C          3.76309        1.70469        0.72639
O          5.81163        1.10759       -0.49672
C          4.52489       -1.34472       -1.55577
H          1.88023       -1.20911       -0.96817
H          1.81546        2.21438        1.46712
C          4.45735        2.84018        1.49527
C          0.81376       -3.88923        3.60395
C          0.06286       -5.93229        2.41919
C          2.14327       -4.75097        1.65593
C         -4.43498       -2.55668       -0.45985
C         -3.11846       -3.43441       -2.40865
C         -3.80317       -4.95171       -0.52572
C         -0.58117       -5.96248       -0.87557
H          1.32520       -4.53726        4.31525
H          1.36344       -2.95022        3.56607
H         -0.18188       -3.68048        3.99442
H          0.59460       -6.51669        3.16972
H         -0.96980       -5.81685        2.74655
H          0.05767       -6.50851        1.49705
H          2.73387       -5.39550        2.30647
H          2.11830       -5.20397        0.66640
H          2.66056       -3.79596        1.57389
H         -4.23126       -1.54254       -0.79743
H         -5.39489       -2.85086       -0.88345
H         -4.53712       -2.53921        0.62484
H         -2.81111       -2.42872       -2.69407
H         -2.34976       -4.12503       -2.75006
H         -4.04033       -3.66745       -2.94073
H         -3.88505       -5.06519        0.55468
H         -4.77885       -5.15843       -0.96490
H         -3.11217       -5.70864       -0.88921
H         -0.89218       -5.44817       -1.78352
H          0.47864       -5.77341       -0.71117
H         -0.74279       -7.03402       -0.99482
C          5.95753        1.94778       -1.63491
C          5.97842       -1.53611       -1.08659
C          3.82937       -2.71976       -1.43409
C          4.49317       -0.91087       -3.02916
C          5.90796        2.46556        1.84984
C          4.43294        4.11983        0.64578
C          3.72767        3.11978        2.82938
H          6.00848       -1.80250       -0.03058
H          6.47111       -2.32783       -1.65043
H          6.56127       -0.62798       -1.21773
H          4.40862       -3.49242       -1.93911
H          3.72724       -3.00874       -0.38915
H          2.83971       -2.71505       -1.88833
H          4.99373        0.04393       -3.17008
H          4.98572       -1.64673       -3.66417
H          3.46553       -0.79948       -3.37449
H          6.51286        2.32973        0.95692
H          6.37809        3.24381        2.45051
H          5.93632        1.53568        2.41685
H          4.90806        4.94718        1.17230
H          4.95542        3.97761       -0.29708
H          3.40800        4.40995        0.41577
H          3.61396        2.20362        3.40838
H          2.73963        3.54812        2.66771
H          4.28857        3.83104        3.43529
H          6.52374        1.42485       -2.40547
H          4.97963        2.22762       -2.02876
H          6.50940        2.84603       -1.35854
