58
-89.86742284
P          1.73988        0.35595        0.72783
C          3.16842        1.31829        0.23054
C          4.31722        0.68248       -0.18145
C          5.41227        1.42959       -0.57653
C          5.34629        2.80892       -0.55736
C          4.19004        3.44211       -0.14555
C          3.09638        2.69218        0.24967
H          2.18263        3.17197        0.56363
H          4.35022       -0.39496       -0.19785
C          1.97228       -1.39131        0.37121
C          1.90179       -1.78996       -0.94451
C          2.04254       -3.12572       -1.27149
C          2.25869       -4.05524       -0.27390
C          2.34455       -3.65031        1.04366
C          2.20529       -2.31263        1.36668
H          2.29058       -1.98643        2.39008
H          1.73591       -1.04611       -1.70809
C          1.38195        0.69089        2.49763
C          0.19769       -0.07845        3.06390
C         -1.16504        0.45295        2.64218
P         -1.67096        0.03644        0.92309
C         -1.59267       -1.72800        0.57757
C         -1.52418       -2.66345        1.58477
C         -1.43107       -4.00659        1.26787
C         -1.41650       -4.40490       -0.05441
C         -1.50435       -3.46504       -1.06175
C         -1.59546       -2.12360       -0.74088
H         -1.67089       -1.37289       -1.51162
H         -1.55709       -2.34660        2.61411
C         -3.32520        0.67607        0.65317
C         -4.36099       -0.18784        0.38011
C         -5.63255        0.31086        0.16162
C         -5.85548        1.67268        0.21654
C         -4.81197        2.53567        0.48811
C         -3.54116        2.03385        0.70689
H         -2.71369        2.69573        0.90899
H         -4.16918       -1.24766        0.33356
Pd        -0.09365        0.79733       -0.60187
Cl         1.34883        1.38444       -2.22157
Cl        -1.90021        1.06273       -1.92380
H         -1.95860        0.05467        3.27951
H         -1.20211        1.53933        2.74005
H          0.28079       -1.13463        2.78239
H          0.25943       -0.06878        4.16336
H          2.30436        0.44910        3.03162
H          1.23088        1.76648        2.60485
H          6.31284        0.93535       -0.90207
H          4.13675        4.51836       -0.13615
H          1.97878       -3.43881       -2.30055
H          2.51924       -4.37609        1.82086
H         -1.36920       -4.74167        2.05344
H         -1.49730       -3.77353       -2.09415
H         -6.44574       -0.36235       -0.05461
H         -4.98490        3.59867        0.52505
H          6.19765        3.39246       -0.86781
H          2.36317       -5.09835       -0.52421
H         -1.33930       -5.45139       -0.30047
H         -6.84511        2.06309        0.04350
