171
-217.84173812
P         -1.63308        0.34442       -0.33292
P          1.62616       -0.34669       -0.36959
C         -0.96485        1.33438       -1.66924
C          0.92549       -1.32806       -1.69553
C         -0.14618        0.74239       -2.62447
C          0.44609        1.56358       -3.60326
C          0.15589        2.91798       -3.62030
C         -0.69134        3.47638       -2.68706
C         -1.24451        2.67877       -1.70549
C          1.20190       -2.67277       -1.74307
C          0.62751       -3.46528       -2.71659
C         -0.23777       -2.90148       -3.62983
C         -0.52584       -1.54682       -3.60056
C          0.08782       -0.73074       -2.63070
Cl         1.59664        0.38959        2.85292
Cl        -1.47106       -0.36134        2.93829
C         -1.46865       -0.97971       -4.60233
C          1.36838        1.00248       -4.62723
H         -0.91545        4.53021       -2.71755
H         -1.90430        3.10705       -0.96889
H          1.87525       -3.10528       -1.02124
H          0.84928       -4.51929       -2.75630
H          0.60277        3.53768       -4.37940
H         -0.70104       -3.51718       -4.38232
C         -4.00974       -3.18671       -1.84958
C         -4.37501       -1.90813       -2.25507
C         -3.61627       -0.84222       -1.78782
C         -2.55173       -1.06006       -0.94842
C         -2.20695       -2.32735       -0.55140
C         -2.93076       -3.42295       -1.00597
H         -4.58506       -4.02827       -2.18637
H         -3.86487        0.16931       -2.06407
H         -1.37083       -2.44933        0.11538
C         -4.18436        2.71247        2.58142
C         -4.73280        1.59449        1.96545
C         -3.94774        0.90620        1.04876
C         -2.67288        1.32897        0.76348
C         -2.14524        2.43176        1.38900
C         -2.89048        3.14497        2.31789
H         -4.78167        3.24568        3.29678
H         -4.31601        0.01748        0.56800
H         -1.13101        2.72224        1.17187
C          4.22676       -2.74342        2.47557
C          2.91945       -3.15696        2.25083
C          2.15909       -2.43601        1.34024
C          2.68529       -1.34306        0.69654
C          3.97412       -0.93896        0.94336
C          4.77459       -1.63640        1.83961
H          4.83578       -3.28272        3.17633
H          1.13524       -2.71242        1.15160
H          4.34146       -0.05686        0.44991
C          3.96738        3.19602       -1.91545
C          2.90672        3.42472       -1.04700
C          2.19503        2.32477       -0.58413
C          2.53271        1.06065       -0.99703
C          3.57854        0.85037       -1.86157
C          4.32568        1.92076       -2.33739
H          4.53386        4.04085       -2.25899
H          1.37376        2.44120        0.10181
H          3.82170       -0.15862       -2.15149
Pd         0.01672        0.01565        1.29178
C         -5.19126       -0.83210       -4.38119
C         -5.60478       -1.63779       -3.13573
C         -6.63370       -0.83218       -2.32254
C         -6.26833       -2.94657       -3.60620
H         -6.05779       -0.60564       -5.00225
H         -4.72321        0.11282       -4.10841
H         -4.48579       -1.39673       -4.98886
H         -7.52636       -0.62832       -2.91361
H         -6.93712       -1.38483       -1.43370
H         -6.22002        0.12335       -2.00176
H         -7.12408       -2.73684       -4.24788
H         -5.56860       -3.55686       -4.17707
H         -6.62862       -3.53146       -2.76016
C         -2.37315       -5.73009       -1.82776
C         -2.59530       -4.85799       -0.57789
C         -3.76313       -5.42324        0.25007
C         -1.31729       -4.90593        0.28014
H         -3.27258       -5.78668       -2.43942
H         -1.57447       -5.32094       -2.44517
H         -2.09672       -6.74687       -1.54931
H         -3.54954       -6.43843        0.58408
H         -3.94230       -4.80782        1.13157
H         -4.68357       -5.44898       -0.33225
H         -1.07335       -5.93198        0.55508
H         -0.46855       -4.49677       -0.26652
H         -1.44231       -4.33884        1.20213
C         -7.15157        2.25910        2.02603
C         -6.14872        1.13360        2.33892
C         -6.19110        0.79865        3.84119
C         -6.56349       -0.12230        1.54844
H         -8.16979        1.95114        2.26320
H         -6.93275        3.15719        2.60239
H         -7.11609        2.52256        0.96904
H         -5.95732        1.67206        4.44872
H         -7.17858        0.44275        4.13441
H         -5.46597        0.02120        4.08111
H         -7.57144       -0.43612        1.81943
H         -6.55560        0.07408        0.47734
H         -5.89211       -0.95611        1.75310
C         -3.17456        4.91871        4.12263
C         -2.25822        4.35434        3.02006
C         -2.00120        5.45882        1.98033
C         -0.92723        3.92674        3.67003
H         -3.39513        4.16015        4.87348
H         -2.69761        5.75758        4.62941
H         -4.11532        5.27896        3.70694
H         -2.93622        5.78346        1.52415
H         -1.52840        6.32694        2.43923
H         -1.35047        5.10271        1.18363
H         -1.08929        3.11357        4.37720
H         -0.21121        3.58057        2.92643
H         -0.47035        4.75727        4.20761
C          2.00008       -5.46360        1.94956
C          2.29009       -4.35455        2.97543
C          0.97756       -3.90910        3.65068
C          3.22411       -4.92005        4.06256
H          2.92206       -5.80210        1.47720
H          1.52677       -6.32293        2.42422
H          1.33779       -5.10551        1.16340
H          0.52593       -4.73039        4.20658
H          1.16228       -3.09058        4.34601
H          0.24773       -3.56422        2.92001
H          2.74848       -5.74810        4.58800
H          4.15072       -5.29605        3.62941
H          3.47095       -4.15724        4.80082
C          6.29130       -0.84623        3.67043
C          6.20657       -1.19485        2.17312
C          6.62144        0.04630        1.35990
C          7.18372       -2.33912        1.84693
H          5.58480       -0.05484        3.92020
H          6.05840       -1.70992        4.29205
H          7.29127       -0.50366        3.93590
H          5.96902        0.89303        1.57266
H          7.64078        0.34629        1.60245
H          6.58346       -0.16085        0.29150
H          6.96624       -3.22773        2.43826
H          7.11723       -2.61286        0.79406
H          8.21226       -2.04458        2.05481
C          1.31875        4.89520        0.28451
C          2.57787        4.85602       -0.60159
C          2.32676        5.73636       -1.84012
C          3.76239        5.41781        0.20470
H          0.45905        4.48815       -0.24636
H          1.46510        4.32177        1.19939
H          1.07879        5.91868        0.57219
H          2.05497        6.75071       -1.54852
H          3.21235        5.79870       -2.47110
H          1.51524        5.33011       -2.44253
H          3.96192        4.79646        1.07762
H          4.66983        5.44960       -0.39738
H          3.55419        6.43014        0.55060
C          6.57885        0.83832       -2.46663
C          5.53625        1.65882       -3.24682
C          6.19515        2.97185       -3.71202
C          5.09423        0.87233       -4.49465
H          7.45979        0.64278       -3.07777
H          6.90005        1.37581       -1.57474
H          6.16958       -0.12179       -2.15404
H          6.57256        3.54432       -2.86493
H          7.03837        2.76821       -4.37198
H          5.48716        3.59173       -4.26194
H          5.94736        0.64936       -5.13524
H          4.62588       -0.07344       -4.22526
H          4.38059        1.44906       -5.08106
H         -2.26453       -1.69059       -4.82674
H          2.16450        1.71138       -4.85684
H         -0.95546       -0.74845       -5.53642
H         -1.93508       -0.06459       -4.23474
H          0.83805        0.78513       -5.55509
H          1.83560        0.08048       -4.27828
