58
-89.86749714
P          1.55110        0.21221        0.85602
C          1.90276        1.90111        0.34625
C          3.11253        2.22120       -0.22644
C          3.35700        3.51758       -0.64204
C          2.38376        4.48499       -0.48717
C          1.16658        4.15742        0.07606
C          0.92710        2.86015        0.49050
H         -0.02972        2.58559        0.90065
H          3.85634        1.45290       -0.36012
C          3.03712       -0.80067        0.81447
C          3.06817       -1.97769        0.10153
C          4.21566       -2.74961        0.09601
C          5.32433       -2.34004        0.80985
C          5.28745       -1.16278        1.53039
C          4.13793       -0.39273        1.53404
H          4.09390        0.52773        2.09497
H          2.19870       -2.28671       -0.45549
C          0.89294        0.16174        2.56967
C          0.22753       -1.18474        2.82698
C         -1.25408       -1.21571        2.48184
P         -1.67323       -0.58967        0.79511
C         -3.01543       -1.59519        0.15750
C         -2.77494       -2.91612       -0.14295
C         -3.79692       -3.70313       -0.64382
C         -5.05161       -3.15977       -0.83829
C         -5.28747       -1.83344       -0.53414
C         -4.26373       -1.04897       -0.03438
H         -4.43104       -0.01084        0.20294
H         -1.78675       -3.32283        0.00576
C         -2.11530        1.15818        0.77142
C         -2.22290        1.91669        1.91572
C         -2.52216        3.26354        1.82169
C         -2.71605        3.84405        0.58397
C         -2.61596        3.08022       -0.56127
C         -2.31527        1.73446       -0.46316
H         -2.22153        1.12267       -1.34711
H         -2.07645        1.46222        2.88076
Pd         0.04096       -0.44891       -0.77218
Cl         1.74732       -0.25154       -2.22224
Cl        -1.42761       -1.01715       -2.37259
H         -1.64714       -2.23346        2.54682
H         -1.83197       -0.62368        3.19290
H          0.75873       -1.95340        2.24639
H          0.36057       -1.47918        3.88018
H          1.74585        0.33301        3.23095
H          0.19913        0.98873        2.72146
H          4.30351        3.76969       -1.09129
H          0.40003        4.90689        0.18497
H          4.24406       -3.66785       -0.46731
H          6.15169       -0.84352        2.08934
H         -3.61153       -4.73670       -0.88586
H         -6.26564       -1.40856       -0.68887
H         -2.60333        3.86021        2.71549
H         -2.76553        3.53040       -1.52877
H          2.57168        5.49493       -0.81336
H          6.21954       -2.94030        0.80481
H         -5.84751       -3.77130       -1.23110
H         -2.94703        4.89436        0.51187
