87
-129.18196441
P         -1.55833       -0.28924       -0.41936
P          1.74066        0.30927        0.24199
C         -1.10624        0.96276       -1.62514
C          1.53704       -0.79782       -1.17640
C          0.00068        0.73756       -2.43359
C          0.35526        1.71166       -3.38785
C         -0.41889        2.85525       -3.50020
C         -1.51693        3.05655       -2.68931
C         -1.85899        2.10439       -1.74924
C          2.16637       -2.01149       -1.02562
C          2.05198       -2.98556       -1.99860
C          1.28845       -2.74107       -3.11874
C          0.62759       -1.53592       -3.28316
C          0.75708       -0.53542       -2.30079
Cl         0.90271       -0.16470        3.37640
Cl        -1.63079       -1.91815        2.31136
H         -2.10421        3.95492       -2.78605
H         -2.71826        2.24815       -1.11554
H          2.74411       -2.19876       -0.13269
H          2.54916       -3.93382       -1.87645
H         -0.14726        3.59816       -4.23079
H          1.18567       -3.50018       -3.87560
C         -2.47587       -4.18696       -2.56379
C         -1.62832       -4.20423       -1.46452
C         -1.38011       -3.00944       -0.80047
C         -1.94081       -1.83487       -1.24397
C         -2.77406       -1.82387       -2.33786
C         -3.04727       -3.00718       -2.99887
H         -2.68591       -5.10939       -3.07783
C         -1.02327       -5.47442       -0.98042
H         -0.74442       -3.00171        0.06853
H         -3.19783       -0.88999       -2.67284
H         -3.70037       -3.00661       -3.85608
C         -5.16730        1.08251        2.00168
C         -5.24315       -0.07015        1.24552
C         -4.15074       -0.48191        0.50611
C         -2.99500        0.26307        0.52197
C         -2.91684        1.41035        1.27691
C         -4.00130        1.83502        2.03436
H         -6.01704        1.40525        2.57877
H         -6.15057       -0.65144        1.23528
H         -4.19177       -1.38708       -0.07736
H         -2.00722        1.98508        1.27783
C         -3.91296        3.08133        2.84282
C          6.06992       -0.04976        1.60826
C          5.77145        0.13874        0.27315
C          4.45310        0.24163       -0.13144
C          3.44507        0.15601        0.80114
C          3.74312       -0.03024        2.12950
C          5.05964       -0.14467        2.55492
H          7.09573       -0.12391        1.92699
H          6.56447        0.20703       -0.45342
H          4.20443        0.38270       -1.17160
H          2.94219       -0.08914        2.84434
C          5.37640       -0.32221        3.99834
C          0.83986        4.72562       -0.34883
C          1.73207        4.09240       -1.19138
C          2.01718        2.75181       -1.01177
C          1.40040        2.05587        0.00051
C          0.54155        2.69368        0.86643
C          0.24236        4.04038        0.69986
H          0.60500        5.76611       -0.49544
H          2.19792        4.63882       -1.99497
H          2.70562        2.24053       -1.66487
H          0.13269        2.15112        1.70173
C         -0.72093        4.72462        1.60387
Pd        -0.12111       -0.51561        1.41740
C          1.54087        1.53822       -4.27162
C         -0.21414       -1.33312       -4.49543
H          2.18563        0.73140       -3.92109
H          1.23422        1.30574       -5.29216
H          2.14047        2.44918       -4.30123
H          0.40413       -1.10594       -5.36468
H         -0.79292       -2.22995       -4.72080
H         -0.92109       -0.51410       -4.35959
H         -0.90729       -6.19188       -1.79399
H         -0.03583       -5.29838       -0.55098
H         -1.64768       -5.93215       -0.21198
H         -2.96361        3.13131        3.37786
H         -3.99055        3.96350        2.20588
H         -4.71206        3.13100        3.58369
H          6.29368       -0.89711        4.13283
H          5.50864        0.64392        4.48716
H          4.57437       -0.85249        4.51385
H         -0.77624        4.22430        2.57162
H         -0.42457        5.75909        1.78297
H         -1.72092        4.73136        1.16804
