171
-217.83567861
P         -1.70205        0.65086        0.23527
P          1.48616       -0.23166       -0.20069
C         -0.86512        1.86738       -0.80844
C          0.67856       -0.77491       -1.72297
C         -0.15695        1.55308       -1.96215
C          0.53057        2.57963       -2.63649
C          0.46455        3.87416       -2.14978
C         -0.24371        4.16824       -1.00461
C         -0.90009        3.15639       -0.33091
C          0.80211       -2.06938       -2.16691
C          0.18281       -2.46747       -3.33519
C         -0.58031       -1.56650       -4.04732
C         -0.74035       -0.26310       -3.60750
C         -0.07447        0.14912       -2.43706
Cl         1.95979        0.95674        2.85291
Cl        -1.12048        0.33094        3.48888
C         -1.59691        0.67981       -4.37829
C          1.34437        2.30540       -3.85277
H         -0.27841        5.17859       -0.63110
H         -1.43945        3.36689        0.58089
H          1.37115       -2.77944       -1.59286
H          0.28925       -3.48072       -3.68649
H          0.98789        4.65510       -2.67529
H         -1.06098       -1.87318       -4.96061
C         -2.78432       -3.43794       -1.39570
C         -3.45343       -2.31627       -1.86663
C         -3.07329       -1.07802       -1.36425
C         -2.07815       -0.98117       -0.42287
C         -1.44331       -2.10645        0.05077
C         -1.77792       -3.36237       -0.44143
H         -3.06797       -4.40334       -1.77238
H         -3.56094       -0.17727       -1.69349
H         -0.67900       -1.99920        0.79891
C         -5.66447        2.52068        1.40000
C         -4.93602        1.86216        2.38326
C         -3.71816        1.30160        2.02299
C         -3.25862        1.39653        0.73469
C         -3.99145        2.05097       -0.22493
C         -5.21284        2.63198        0.09009
H         -6.60544        2.96112        1.67112
H         -3.10117        0.80565        2.74887
H         -3.59917        2.12051       -1.22629
C          3.83534       -3.72459        1.56075
C          2.98963       -3.01495        2.40313
C          2.26792       -1.96303        1.85858
C          2.39911       -1.61557        0.53448
C          3.27480       -2.30681       -0.26810
C          3.99633       -3.38777        0.22339
H          4.39124       -4.55663        1.95005
H          1.61940       -1.39457        2.49798
H          3.39196       -1.99884       -1.29173
C          4.49443        2.96666       -1.31503
C          3.65055        3.19878       -0.23654
C          2.74565        2.20305        0.10467
C          2.68529        1.03646       -0.61445
C          3.51268        0.83278       -1.69160
C          4.44000        1.79860       -2.06526
H          5.22406        3.71331       -1.56805
H          2.08583        2.32726        0.94352
H          3.41504       -0.07961       -2.25305
Pd         0.14331        0.42230        1.64134
C         -5.67091       -3.40684       -2.29580
C         -4.59410       -2.47432       -2.88215
C         -4.04007       -3.07738       -4.18460
C         -5.25430       -1.12062       -3.20816
H         -5.27298       -4.40236       -2.10326
H         -6.05143       -3.01023       -1.35467
H         -6.51112       -3.51213       -2.98195
H         -3.29093       -2.42023       -4.62332
H         -3.57362       -4.04549       -4.00566
H         -4.83388       -3.21806       -4.91799
H         -6.06879       -1.24805       -3.92106
H         -5.66951       -0.66449       -2.30982
H         -4.53735       -0.42838       -3.64814
C         -2.17369       -5.48843        0.81705
C         -1.11940       -4.65274        0.06932
C          0.04141       -4.35289        1.03292
C         -0.56053       -5.46350       -1.11533
H         -1.73797       -6.40748        1.20859
H         -2.58609       -4.92618        1.65469
H         -2.99821       -5.76190        0.15948
H          0.50722       -5.27507        1.37993
H          0.81108       -3.76077        0.54106
H         -0.30965       -3.80759        1.90796
H          0.18384       -4.88620       -1.66147
H         -0.08249       -6.37920       -0.76765
H         -1.34669       -5.74509       -1.81438
C         -6.83826        1.05857        3.80703
C         -5.47968        1.78309        3.81717
C         -5.65350        3.20797        4.37402
C         -4.52220        1.01046        4.74615
H         -7.23979        0.96842        4.81622
H         -7.56976        1.59570        3.20448
H         -6.73577        0.05544        3.39348
H         -6.01949        3.18382        5.40030
H         -4.70332        3.74171        4.36678
H         -6.36409        3.78176        3.78030
H         -4.37622       -0.01147        4.39700
H         -3.54914        1.49807        4.80083
H         -4.92218        0.95929        5.75863
C         -6.30257        2.40900       -2.15831
C         -5.99335        3.37747       -1.00162
C         -5.13811        4.54805       -1.52185
C         -7.32408        3.94157       -0.46814
H         -6.87422        2.90639       -2.94163
H         -5.38788        2.02469       -2.60813
H         -6.88548        1.55958       -1.80292
H         -4.20399        4.19349       -1.95631
H         -5.67059        5.11000       -2.28893
H         -4.89022        5.23325       -0.71142
H         -7.86631        4.46356       -1.25651
H         -7.96769        3.14377       -0.09786
H         -7.15320        4.65251        0.34002
C          3.36455       -2.06735        4.68807
C          2.87637       -3.30287        3.90808
C          3.73204       -4.51516        4.32196
C          1.41028       -3.59459        4.27739
H          4.39520       -1.82947        4.42612
H          2.75420       -1.19294        4.46502
H          3.31940       -2.24032        5.76302
H          3.63447       -4.71055        5.38980
H          3.41925       -5.41453        3.79167
H          4.78756       -4.33996        4.11485
H          1.30924       -3.78146        5.34628
H          0.76133       -2.75659        4.02589
H          1.04793       -4.47584        3.74967
C          4.38086       -5.65325       -0.76657
C          4.92904       -4.21802       -0.66946
C          6.34280       -4.23795       -0.05901
C          5.02504       -3.63237       -2.09226
H          3.37357       -5.65254       -1.18322
H          5.01144       -6.27002       -1.40668
H          4.33589       -6.12555        0.21420
H          6.72926       -3.22449        0.04783
H          6.34522       -4.70300        0.92592
H          7.03232       -4.79707       -0.69130
H          4.05167       -3.62613       -2.58259
H          5.40890       -2.61270       -2.06923
H          5.69972       -4.22504       -2.70988
C          3.51966        5.69843       -0.40553
C          3.74747        4.51299        0.55022
C          5.14418        4.61838        1.18819
C          2.69057        4.58224        1.67081
H          2.54030        5.62854       -0.87759
H          3.56833        6.64621        0.13028
H          4.27041        5.72284       -1.19439
H          5.32682        3.77445        1.85318
H          5.92615        4.62201        0.42970
H          5.23922        5.53457        1.77071
H          2.75978        5.52642        2.21058
H          1.68236        4.50738        1.26409
H          2.83124        3.77902        2.39377
C          5.00795        0.37052       -4.09241
C          5.42999        1.56750       -3.21658
C          6.81874        1.28071       -2.62011
C          5.50340        2.81579       -4.11798
H          5.03102       -0.56089       -3.52796
H          4.00167        0.51016       -4.48671
H          5.68383        0.25357       -4.93942
H          7.16471        2.11922       -2.01621
H          6.78819        0.39868       -1.98045
H          7.55357        1.10444       -3.40543
H          4.52059        3.06694       -4.51483
H          5.87944        3.68191       -3.57559
H          6.17076        2.64460       -4.96254
H         -1.99728        1.46516       -3.73517
H          2.32161        2.78297       -3.77532
H         -2.44383        0.16096       -4.82958
H         -1.03075        1.15444       -5.18065
H          0.85274        2.69110       -4.74695
H          1.51152        1.23671       -3.99176
