100
-131.97678826
C         -1.55589        3.88802       -1.37611
C         -2.32108        2.64098       -1.47339
C         -0.17127        3.56590       -1.39091
C         -0.00391        2.09393       -1.53987
C          1.14518        1.52122       -2.30020
C         -1.40220        1.54148       -1.55705
C         -1.82488        0.15552       -2.01431
C         -0.94944       -0.44837       -3.09517
Cl         1.02620       -0.42285        2.78219
Cl        -1.77051       -1.59676        2.33880
C          3.20221        0.52163       -3.91880
C          2.46306        1.60933       -4.34132
C          2.93177       -0.05726       -2.68718
C          1.46018        2.10549       -3.54659
C          1.91635        0.41468       -1.88972
H         -3.40600        2.57323       -1.56787
H          0.64473        4.29151       -1.43187
H          0.01147       -0.75866       -2.68589
H         -1.41015       -1.32896       -3.54890
H         -0.75661        0.27000       -3.89541
H          3.99753        0.13504       -4.53483
H          2.67519        2.06808       -5.29350
H          3.54802       -0.87236       -2.34483
H          0.87768        2.94742       -3.87906
H         -1.97832        4.89583       -1.35301
P          1.80693       -0.29827       -0.23653
H         -2.84179        0.24498       -2.41548
P         -1.99862       -0.99023       -0.57465
H         -2.93765       -2.89279       -1.76473
C         -1.83860       -3.84845       -0.17162
C         -2.01911       -2.72934       -1.20470
C         -3.08798       -4.06847        0.68349
H         -3.34315        0.32962        0.89556
C         -4.79489       -0.20992       -0.59234
C         -3.57581       -0.53438        0.27583
H         -4.53564        0.65079       -1.23242
C         -5.19288       -1.37138       -1.50243
H          3.55003       -1.92153       -0.58629
H          2.68657        0.61713        1.82272
C          3.59510        3.17737        1.30207
C          2.71735        2.26208        0.42935
C          2.94348        0.78348        0.77126
C          4.42439        0.42332        0.57531
C          5.33499        1.33105        1.42871
C          5.08344        2.82117        1.12597
H          3.31207        3.05443        2.35482
H          3.41125        4.23537        1.06823
H          2.97396        2.41929       -0.62562
H          1.65538        2.52040        0.50800
H          4.60202       -0.63322        0.81298
H          4.67809        0.53536       -0.48555
H          5.14085        1.13973        2.49146
H          6.39257        1.07533        1.27369
H          5.38875        3.03827        0.09460
H          5.71468        3.46025        1.75953
C          2.37813       -4.32100       -1.29553
C          1.75702       -2.91106       -1.23315
C          2.51424       -2.01980       -0.24217
C          2.53584       -2.66150        1.15409
C          3.16515       -4.06736        1.10668
C          2.41723       -4.96679        0.10321
H          3.39952       -4.24771       -1.68922
H          1.83571       -4.95737       -2.00840
H          0.71565       -2.98170       -0.90470
H          1.72043       -2.44592       -2.22758
H          3.05367       -2.01202        1.87235
H          1.50914       -2.74358        1.52800
H          4.21724       -3.98386        0.80735
H          3.17868       -4.52249        2.10690
H          1.39144       -5.12763        0.45767
H          2.87227       -5.96638        0.05948
H         -1.01205       -3.55456        0.49962
C         -1.44713       -5.15678       -0.86745
H         -3.82768       -1.33570        0.96593
C         -5.97362        0.21002        0.29183
H         -1.21152       -2.78523       -1.93524
H         -3.31028       -3.20932        1.31248
H         -2.96561       -4.92708        1.34566
H         -3.95859       -4.26080        0.05603
H         -1.25947       -5.95394       -0.14643
H         -2.24724       -5.49244       -1.52793
H         -0.55043       -5.03845       -1.47648
H         -4.42826       -1.58113       -2.24988
H         -5.35704       -2.27916       -0.92135
H         -6.11805       -1.15453       -2.03901
H         -6.27231       -0.60902        0.94685
H         -5.71606        1.05993        0.92589
H         -6.84388        0.48843       -0.30463
Fe        -1.06724        2.65636        0.16519
C         -2.54081        2.87142        1.58994
C         -1.79724        4.11040        1.45001
C         -0.39971        3.82169        1.71553
C         -0.29402        2.42073        2.07092
C         -1.61671        1.83672        2.00600
H         -3.62195        2.75965        1.47952
H         -2.21556        5.08693        1.19561
H          0.41778        4.54676        1.71152
H          0.60204        1.90126        2.41273
H         -1.85946        0.80867        2.28074
Pd        -0.19282       -0.80172        0.90858
