171
-217.84152992
P         -1.61704        0.34487       -0.45899
P          1.61957       -0.37096       -0.42105
C         -0.94549        1.27989       -1.83010
C          0.95323       -1.37224       -1.74996
C         -0.11729        0.66080       -2.75873
C          0.47165        1.44942       -3.76562
C          0.16767        2.79908       -3.83583
C         -0.68950        3.38356       -2.92787
C         -1.23577        2.61951       -1.91557
C          1.24064       -2.71559       -1.75601
C          0.69265       -3.53870       -2.71966
C         -0.16661       -3.00906       -3.65836
C         -0.46907       -1.65744       -3.66849
C          0.12470       -0.80921       -2.71403
Cl         1.57533        0.54536        2.72992
Cl        -1.56533       -0.47754        2.77805
C         -1.40401       -1.12851       -4.69832
C          1.39361        0.85283       -4.76983
H         -0.92639        4.43238       -3.00227
H         -1.89459        3.06910       -1.19007
H          1.89772       -3.12342       -1.00483
H          0.92846       -4.59033       -2.73095
H          0.60960        3.39396       -4.61731
H         -0.61312       -3.64944       -4.40032
C         -4.02725       -3.29586       -1.63562
C         -4.35133       -2.06978       -2.20677
C         -3.57713       -0.96855       -1.86074
C         -2.53574       -1.10024       -0.97537
C         -2.23274       -2.31580       -0.41612
C         -2.97763       -3.44311       -0.73579
H         -4.61567       -4.15663       -1.88783
H         -3.79878        0.00506       -2.26552
H         -1.41966       -2.38020        0.28719
C         -4.12083        2.83806        2.39078
C         -4.72423        1.77957        1.72290
C         -3.95203        1.05093        0.82648
C         -2.63940        1.38564        0.60229
C         -2.06351        2.44214        1.26488
C         -2.79189        3.18634        2.18275
H         -4.70198        3.38745        3.10718
H         -4.36058        0.19696        0.31644
H         -1.02366        2.66499        1.09397
C          4.18977       -2.75973        2.45606
C          2.85298       -3.10387        2.30590
C          2.09848       -2.38569        1.38723
C          2.66297       -1.35990        0.66819
C          3.98425       -1.02719        0.83829
C          4.77967       -1.72941        1.73532
H          4.78411       -3.29681        3.17221
H          1.05334       -2.60214        1.24700
H          4.38319       -0.19792        0.28209
C          3.93323        3.29568       -1.71107
C          2.87992        3.44177       -0.81574
C          2.16214        2.30525       -0.46768
C          2.50123        1.08071       -0.98609
C          3.54841        0.95086       -1.86515
C          4.29262        2.06218       -2.24338
H          4.49461        4.16506       -1.99332
H          1.33728        2.37039        0.22109
H          3.79567       -0.02732       -2.24303
Pd        -0.01446        0.01469        1.22203
C         -6.55477       -0.91189       -2.48488
C         -5.55939       -1.88690       -3.13936
C         -6.28645       -3.22003       -3.40252
C         -5.09429       -1.31578       -4.49068
H         -7.43319       -0.76896       -3.11395
H         -6.88938       -1.29587       -1.52152
H         -6.10023        0.06442       -2.32053
H         -7.13411       -3.07197       -4.07155
H         -5.62003       -3.94458       -3.87025
H         -6.66995       -3.64814       -2.47654
H         -5.94318       -1.14100       -5.15154
H         -4.57142       -0.36867       -4.36372
H         -4.42207       -2.01171       -4.99054
C         -1.21696       -5.20482       -0.48329
C         -2.63591       -4.78183       -0.06684
C         -3.61812       -5.89592       -0.47640
C         -2.70266       -4.61357        1.46316
H         -0.92667       -6.13678        0.00137
H         -1.16437       -5.35409       -1.56129
H         -0.48553       -4.44360       -0.21632
H         -3.36579       -6.83385        0.01822
H         -4.64000       -5.63981       -0.19712
H         -3.58620       -6.07236       -1.55139
H         -2.46850       -5.54945        1.97010
H         -1.99758       -3.86050        1.81149
H         -3.70004       -4.30170        1.77223
C         -6.68445        0.27187        1.12742
C         -6.18021        1.40818        2.03754
C         -7.08453        2.63627        1.82198
C         -6.27292        0.94232        3.50157
H         -7.72585        0.03429        1.34414
H         -6.62177        0.56110        0.07913
H         -6.10305       -0.63846        1.27256
H         -7.00237        2.99902        0.79754
H         -8.12919        2.38811        2.00906
H         -6.81394        3.45321        2.48960
H         -5.62361        0.08385        3.67267
H         -5.96821        1.73260        4.18677
H         -7.29221        0.65244        3.75603
C         -0.94013        3.67960        3.79091
C         -2.08901        4.29938        2.97212
C         -3.05290        5.01107        3.94038
C         -1.52458        5.34259        1.99177
H         -0.41880        4.43969        4.37224
H         -1.32236        2.92742        4.48054
H         -0.20995        3.19325        3.14558
H         -3.88446        5.46560        3.40212
H         -3.45504        4.31494        4.67616
H         -2.53878        5.80350        4.48419
H         -2.32107        5.77387        1.38572
H         -1.02762        6.15269        2.52522
H         -0.79795        4.89347        1.31811
C          2.39465       -3.82282        4.66169
C          2.24401       -4.20988        3.17882
C          2.97595       -5.53610        2.90625
C          0.74532       -4.40694        2.88167
H          1.94545       -4.57548        5.30932
H          3.44261       -3.72431        4.94194
H          1.90436       -2.86977        4.85985
H          4.03509       -5.46116        3.14991
H          2.55280       -6.34473        3.50199
H          2.89287       -5.81184        1.85506
H          0.32379       -5.18906        3.51287
H          0.18535       -3.49148        3.07217
H          0.59021       -4.70147        1.84484
C          6.39287       -0.85061        3.43474
C          6.24827       -1.36270        1.99048
C          6.73267       -0.26211        1.02769
C          7.13373       -2.60645        1.78648
H          6.10254       -1.61489        4.15481
H          7.42272       -0.56394        3.64684
H          5.75813        0.02012        3.59833
H          7.78218       -0.02667        1.20382
H          6.63498       -0.58609       -0.00767
H          6.16297        0.65752        1.16005
H          6.87746       -3.39820        2.48919
H          7.01471       -3.00176        0.77782
H          8.18619       -2.36308        1.93132
C          1.13587        5.23124       -0.80295
C          2.48758        4.79861       -0.21336
C          3.53339        5.88665       -0.52498
C          2.37038        4.66947        1.31840
H          0.80673        6.17963       -0.37875
H          1.20999        5.35115       -1.88350
H          0.36887        4.48479       -0.60272
H          3.60408        6.07118       -1.59664
H          3.26336        6.82927       -0.04893
H          4.51807        5.59881       -0.15692
H          2.12368        5.62864        1.77324
H          1.59390        3.96136        1.60222
H          3.31008        4.32336        1.74812
C          6.21175        3.22849       -3.44980
C          5.49989        1.88859       -3.17888
C          5.03401        1.30770       -4.52515
C          6.50984        0.92757       -2.52610
H          5.53955        3.94061       -3.92820
H          6.58404        3.66937       -2.52521
H          7.06502        3.08525       -4.11270
H          4.34660        1.99237       -5.02009
H          5.88025        1.14484       -5.19243
H          4.52719        0.35285       -4.39112
H          6.06961       -0.05493       -2.36025
H          7.38850        0.79610       -3.15736
H          6.84182        1.31715       -1.56412
H         -2.21273       -1.83596       -4.88195
H          0.85345        0.55473       -5.66896
H         -0.88986       -0.96014       -5.64520
H         -1.85305       -0.18597       -4.38205
H          1.89945       -0.02702       -4.36962
H          2.15878        1.57006       -5.06687
