58
-89.85815165
P          1.59379       -0.12577        0.74236
C          2.64732        1.28928        1.07259
C          3.17784        1.50201        2.32494
C          3.99323        2.59723        2.54772
C          4.27732        3.46752        1.51355
C          3.75449        3.24261        0.25560
C          2.94026        2.14708        0.03738
H          2.54736        1.93577       -0.94392
H          2.96185        0.80854        3.12130
C          2.54016       -1.46821        0.01750
C          1.90243       -2.65005       -0.28429
C          2.61483       -3.68680       -0.85957
C          3.96003       -3.53005       -1.13023
C          4.59407       -2.34062       -0.82903
C          3.87917       -1.30581       -0.25373
H          4.35739       -0.36825       -0.02106
H          0.84935       -2.75478       -0.07727
C          0.75740       -0.74262        2.25473
C         -0.08060        0.30689        2.96979
C         -0.92247        1.17978        2.04692
P         -1.72640        0.27939        0.65153
C         -2.11831       -1.43495        1.00783
C         -1.83367       -2.39590        0.06363
C         -2.10000       -3.72540        0.33447
C         -2.65945       -4.08026        1.54619
C         -2.95892       -3.11055        2.48318
C         -2.68859       -1.78132        2.21127
H         -2.92047       -1.01211        2.93061
H         -1.42673       -2.09938       -0.88992
C         -3.16569        1.17476        0.06757
C         -4.34900        0.50556       -0.14579
C         -5.45157        1.19293       -0.62043
C         -5.35788        2.54583       -0.88149
C         -4.16628        3.21165       -0.67128
C         -3.06513        2.52148       -0.19614
H         -2.12401        3.02499       -0.04012
H         -4.40296       -0.55248        0.05411
Pd         0.00151        0.26913       -0.90270
Cl         1.65006        0.42677       -2.42037
Cl        -1.58188        0.57717       -2.46785
H         -1.70566        1.70558        2.59845
H         -0.30490        1.94836        1.57591
H         -0.73233       -0.19344        3.70139
H          0.57264        0.95250        3.57530
H          0.13650       -1.57733        1.92668
H          1.52030       -1.16872        2.91033
H          4.40799        2.76906        3.52741
H          3.98362        3.91440       -0.55521
H          2.11884       -4.61295       -1.09941
H          5.64245       -2.21637       -1.04518
H         -1.87693       -4.48068       -0.40117
H         -3.40182       -3.38804        3.42557
H         -6.37954        0.67201       -0.79005
H         -4.09123        4.26575       -0.88221
H          4.91301        4.32044        1.68725
H          4.51544       -4.33637       -1.58086
H         -2.86899       -5.11597        1.75861
H         -6.21507        3.08222       -1.25462
