58
-89.86465616
P          1.66209        0.29305        0.77091
C          2.86397        1.55688        0.34764
C          4.17430        1.21390        0.10560
C          5.09005        2.19457       -0.23040
C          4.68438        3.51153       -0.32231
C          3.36762        3.85013       -0.07955
C          2.45387        2.86714        0.25705
H          1.41983        3.11392        0.44096
H          4.47352        0.18053        0.17443
C          2.34237       -1.34952        0.48567
C          2.51683       -1.75929       -0.81660
C          3.00055       -3.02532       -1.08719
C          3.31102       -3.87623       -0.04557
C          3.14515       -3.46041        1.26074
C          2.66153       -2.19222        1.52691
H          2.53648       -1.86069        2.54434
H          2.26951       -1.07932       -1.61578
C          1.25923        0.55759        2.54641
C          0.12633       -0.30389        3.08058
C         -1.25004        0.19469        2.68296
P         -1.66996        0.01100        0.90234
C         -1.92349       -1.72813        0.50636
C         -3.15856       -2.21346        0.14121
C         -3.30773       -3.55179       -0.17399
C         -2.21608       -4.39654       -0.12943
C         -0.97513       -3.90408        0.22130
C         -0.83208       -2.56588        0.53710
H          0.13962       -2.16145        0.76132
H         -3.99888       -1.54273        0.08307
C         -3.15344        1.00213        0.65489
C         -3.11746        2.13230       -0.13010
C         -4.25677        2.90037       -0.28764
C         -5.42480        2.53850        0.35327
C         -5.45366        1.41543        1.15576
C         -4.31212        0.64924        1.31063
H         -4.31747       -0.21826        1.95165
H         -2.19974        2.40758       -0.62425
Pd        -0.08497        0.39627       -0.76188
Cl         1.46632        0.98868       -2.27774
Cl        -1.80122        0.38000       -2.20795
H         -2.03558       -0.33254        3.22987
H         -1.35658        1.25426        2.92394
H          0.25595       -1.34226        2.75280
H          0.18900       -0.34244        4.17938
H          2.19029        0.37850        3.08975
H          1.02684        1.61672        2.67229
H          6.11660        1.92988       -0.42374
H          3.05013        4.87704       -0.15630
H          3.13193       -3.34592       -2.10754
H          3.39201       -4.12365        2.07348
H         -4.27423       -3.93287       -0.46035
H         -0.11660       -4.55514        0.23810
H         -4.23185        3.77865       -0.91158
H         -6.36258        1.13686        1.66330
H          5.39617        4.27627       -0.58731
H          3.68661       -4.86515       -0.25225
H         -2.33096       -5.43885       -0.37860
H         -6.31378        3.13538        0.22998
