105
-153.06198944
Cl        -0.20507        3.32463        2.20149
Pd        -0.52509        1.94502        0.45918
P         -0.98276        0.36021       -1.27831
N         -0.96104       -1.41856       -1.39056
C          0.05946       -2.37938       -1.27729
C          0.15206       -3.11072       -0.06620
C          1.16813       -4.06410        0.10654
C          1.32835       -4.71999        1.45503
C          2.21034       -5.97834        1.43192
C          3.48990       -5.73374        0.62411
C          3.15960       -5.33927       -0.82504
C          2.05558       -4.31818       -0.94263
C          1.93111       -3.60685       -2.13368
C          0.95910       -2.65266       -2.30270
H          0.88516       -2.10718       -3.22561
H          2.62167       -3.81204       -2.93416
H          4.05608       -4.95140       -1.32556
H          4.06772       -4.92947        1.09682
H          2.45079       -6.30665        2.45296
H          1.75439       -3.98380        2.14734
C         -0.66917       -2.61206        1.06898
C         -0.24737       -1.38399        1.62652
C         -1.06035       -0.72642        2.54101
C         -2.26688       -1.27255        2.90045
C         -2.71958       -2.46610        2.34065
C         -4.07926       -2.97843        2.74149
C         -4.68524       -3.95969        1.72567
C         -3.65679       -5.01919        1.31374
C         -2.41578       -4.36794        0.68138
C         -1.92440       -3.14129        1.40881
H         -1.59777       -5.09547        0.61366
H         -4.10631       -5.75108        0.62795
H         -5.01059       -3.40542        0.83611
H         -4.75226       -2.12476        2.89319
H         -2.89319       -0.76138        3.61189
H         -0.73674        0.21815        2.94123
N          0.92881       -0.83986        1.14285
P          1.41986        0.82602        1.18035
C          2.36300        1.17334       -0.30240
C          2.17852        0.35573       -1.38991
C          2.85007        0.61492       -2.56928
C          3.70555        1.70342       -2.66620
C          3.86944        2.52558       -1.55850
C          3.20128        2.25953       -0.37662
H          3.31739        2.89982        0.48323
H          4.51739        3.38232       -1.63060
C          4.38239        2.01941       -3.95399
H          2.69238       -0.01180       -3.43019
H          1.46548       -0.44758       -1.32889
C          2.48017        1.02627        2.61189
C          2.32013        2.06055        3.50153
C          3.16881        2.17740        4.58526
C          4.18333        1.25194        4.78961
C          4.33644        0.21755        3.87608
C          3.48417        0.10424        2.79133
H          3.59621       -0.70102        2.08177
H          5.12748       -0.49876        4.01846
C          5.11483        1.38938        5.94340
H          3.04802        2.99022        5.28091
H          1.52689        2.77049        3.34398
H          1.58209       -1.42355        0.63616
H         -1.67100       -1.53399       -0.67596
C         -0.43780        1.08724       -2.82026
C         -0.37243        0.27917       -3.92928
C          0.09124        0.79054       -5.12830
C          0.49268        2.11646       -5.22003
C          0.38580        2.92596       -4.09688
C         -0.08168        2.41276       -2.90152
H         -0.18821        3.04717       -2.03749
H          0.67086        3.96191       -4.16410
C          0.98671        2.66909       -6.51128
H          0.14813        0.16049       -5.99940
H         -0.69269       -0.74688       -3.85001
C         -2.77206        0.58119       -1.17563
C         -3.47914        1.10071       -2.23296
C         -4.85126        1.24302       -2.13816
C         -5.52473        0.85440       -0.98774
C         -4.79200        0.33433        0.07019
C         -3.42026        0.19636       -0.02738
H         -2.85048       -0.21215        0.78999
H         -5.30125        0.04098        0.97226
C         -6.99852        1.03313       -0.87343
H         -5.40851        1.66130       -2.95891
H         -2.95574        1.39934       -3.12638
Cl        -2.13533        3.29799       -0.32968
H          2.86993       -6.23121       -1.39329
H          1.64953       -6.80658        0.98097
H          4.14154       -6.61860        0.64996
H          0.33722       -4.95734        1.86037
H         -3.35461       -5.59322        2.19862
H         -2.63711       -4.08632       -0.35516
H         -3.99501       -3.46401        3.72096
H         -5.59280       -4.43133        2.12834
H          5.34600        2.50185       -3.78475
H          4.56195        1.11497       -4.53688
H          3.76993        2.69129       -4.55687
H          4.62252        1.86584        6.79234
H          5.47671        0.41529        6.27548
H          5.98020        1.99567        5.67238
H          0.15406        2.98328       -7.14201
H          1.63149        3.53410       -6.34969
H          1.56433        1.92460       -7.06108
H         -7.48227        0.94976       -1.84763
H         -7.43731        0.27739       -0.22041
H         -7.23784        2.01433       -0.46134
