111
-148.55162373
P         -2.56265        2.00038        1.07599
P          0.10740        0.43864        0.47355
C         -1.46319        1.54639        2.44639
C         -0.26365        0.92893        2.16708
C         -3.44251        3.59185        1.43103
C         -2.78283        4.78436        0.77401
C         -1.80804        1.81280        3.75660
H         -2.75658        2.27332        3.97707
C         -0.94252        1.46971        4.78105
H         -1.21180        1.67787        5.80371
C          0.26403        0.85989        4.49590
H          0.93649        0.59095        5.29380
C          0.60231        0.58331        3.18367
H          1.52983        0.08747        2.94371
Pd        -1.35489        1.64020       -0.87180
Cl        -2.68867        3.10168       -1.91437
Cl        -0.05598        1.06160       -2.61250
C         -4.87460        3.28819        0.95714
C         -4.01612        0.87252        0.85117
H         -1.74289        4.88683        1.09240
H         -2.78395        4.68373       -0.31094
H         -3.30522        5.71266        1.01614
H         -4.95714        3.55091       -0.10668
H         -5.59803        3.93268        1.47972
H         -4.01257        0.57949       -0.20731
C         -5.22285        1.78401        1.15048
C         -3.90831       -0.34354        1.74530
H         -3.43108        3.71094        2.52163
H         -5.54387        1.61519        2.18742
H         -6.08294        1.49791        0.52651
H         -4.77630       -0.99804        1.63701
H         -3.01514       -0.92704        1.51294
H         -3.84264       -0.04814        2.79415
C         -1.21162       -3.88299       -0.13568
C         -1.03644       -3.37993        1.17880
C         -0.62357       -2.06708        1.32896
C         -0.45441       -1.24921        0.24286
C         -0.71627       -1.70395       -1.02134
C         -1.13945       -3.00192       -1.24460
O         -1.41945       -5.27246       -0.34375
C         -1.24983       -4.24247        2.43227
H         -0.41842       -1.66554        2.30521
H         -0.56966       -1.02254       -1.84015
C         -1.48440       -3.43519       -2.67765
C          4.51620        0.62907       -0.63347
C          3.97960       -0.54414       -0.04395
C          2.63115       -0.55979        0.27004
C          1.84906        0.55092        0.08928
C          2.38585        1.72206       -0.37560
C          3.72649        1.80505       -0.71530
O          5.82810        0.61386       -1.17744
C          4.81792       -1.80480        0.21927
H          2.16389       -1.45445        0.64462
H          1.73235        2.56915       -0.49364
C          4.28751        3.14597       -1.21356
C         -2.35436       -5.29004        2.20366
C          0.07113       -4.93519        2.80030
C         -1.69869       -3.37009        3.62724
C         -0.21532       -3.95386       -3.37046
C         -2.57558       -4.52096       -2.68264
C         -2.03638       -2.23939       -3.48798
C         -0.22035       -6.01500       -0.52670
H         -2.54867       -5.85937        3.11229
H         -3.28307       -4.80801        1.90001
H         -2.07612       -5.99714        1.42624
H          0.85134       -4.19905        2.99321
H         -0.04453       -5.54716        3.69447
H          0.41637       -5.57896        1.99483
H         -0.90714       -2.69986        3.95906
H         -2.56932       -2.77001        3.36450
H         -1.96777       -3.99259        4.48027
H          0.19848       -4.81122       -2.84492
H         -0.42617       -4.25667       -4.39575
H          0.55165       -3.18009       -3.39763
H         -2.23356       -5.43005       -2.19450
H         -3.46427       -4.17374       -2.15664
H         -2.86400       -4.78208       -3.70052
H         -2.86186       -1.76182       -2.96075
H         -1.26990       -1.48878       -3.67437
H         -2.40474       -2.56726       -4.45966
H          0.64788       -5.35750       -0.46565
H         -0.14707       -6.78579        0.24035
H         -0.23780       -6.50443       -1.50031
C          5.88316        0.21679       -2.54204
C          4.75010       -2.72486       -1.00927
C          6.28078       -1.44420        0.53481
C          4.27088       -2.57666        1.44243
C          3.53306        4.32850       -0.56427
C          5.77235        3.30293       -0.83860
C          4.11225        3.23154       -2.73750
H          3.71953       -3.01004       -1.22022
H          5.14379       -2.23091       -1.89431
H          5.32614       -3.63560       -0.84743
H          6.76323       -0.96373       -0.31254
H          6.33305       -0.75956        1.38069
H          6.85924       -2.33399        0.78210
H          4.93682       -3.39608        1.71205
H          4.18184       -1.91955        2.30717
H          3.29368       -3.01335        1.24115
H          4.01027        5.27575       -0.81450
H          2.50276        4.38919       -0.91152
H          3.52541        4.23418        0.52130
H          6.38704        2.55041       -1.32593
H          6.15065        4.28032       -1.13708
H          5.90919        3.20018        0.23734
H          4.64925        2.43181       -3.24169
H          4.48410        4.18121       -3.12114
H          3.06029        3.14549       -3.00889
H          6.33037        1.01296       -3.13697
H          6.50623       -0.67198       -2.64023
H          4.88124        0.00208       -2.91600
