59
-75.79860588
Cl         1.32208        0.62625        2.44524
P          1.45357        0.03386       -0.80204
P         -1.71243       -0.21175       -0.81273
C          0.47417        0.39632       -2.32753
H          0.18001        1.44824       -2.31256
H          1.11770        0.24844       -3.20052
C         -0.73651       -0.49105       -2.35368
H         -0.44317       -1.54291       -2.39122
H         -1.37932       -0.29793       -3.21824
C          2.46077       -1.48925       -1.10361
H          2.06003       -1.92434       -2.02940
C          2.80932        1.26415       -0.50768
H          2.65251        1.65991        0.50378
C         -3.02410       -1.49206       -0.54089
H         -3.07164       -1.64809        0.54387
C         -2.78431        1.29551       -0.99703
H         -2.65332        1.63651       -2.03107
C          3.87476       -0.92361       -1.33797
H          4.62652       -1.67098       -1.04500
H          4.03324       -0.75522       -2.41373
C          4.09571        0.41287       -0.57518
H          4.89787        0.99119       -1.05395
H          4.46006        0.20488        0.44081
C         -4.29566       -0.77924       -1.02913
H         -4.42101       -0.97417       -2.10340
H         -5.18594       -1.20857       -0.54417
C         -4.21069        0.75058       -0.78305
H         -4.51726        0.96650        0.24968
H         -4.92716        1.29079       -1.42014
C          2.35955       -2.50862        0.03204
H          2.81195       -3.45597       -0.29370
H          1.30089       -2.73956        0.20601
C          2.76582        2.40960       -1.51373
H          2.95643        2.00599       -2.51689
H          1.74657        2.81588       -1.55283
C         -2.73900       -2.81520       -1.24115
H         -3.63818       -3.44544       -1.19736
H         -2.57394       -2.62462       -2.30940
C         -2.42181        2.41557       -0.02402
H         -3.23351        3.15647       -0.02090
H         -2.40475        2.00524        0.99403
C          3.00156       -2.06692        1.33755
H          4.08249       -1.95772        1.23756
H          2.82361       -2.78236        2.14375
H          2.60988       -1.10461        1.66481
C          3.74550        3.53062       -1.19465
H          3.67608        4.35062       -1.91317
H          4.77834        3.17941       -1.20241
H          3.55597        3.94697       -0.20344
C         -1.55606       -3.55652       -0.64006
H         -1.73058       -3.79193        0.41159
H         -0.65081       -2.95171       -0.68385
H         -1.35061       -4.49546       -1.15913
C         -1.10355        3.10517       -0.33890
H         -0.89299        3.92108        0.35628
H         -0.26538        2.41135       -0.28097
H         -1.10748        3.52518       -1.34644
Cl        -1.87338       -0.23217        2.29578
Pd        -0.14148       -0.02205        0.88053
