100
-131.98208578
C         -1.61818        3.79382       -1.46314
C         -2.35405        2.52499       -1.47805
C         -0.22794        3.50187       -1.52153
C         -0.03311        2.03016       -1.61014
C          1.13294        1.43294       -2.31866
C         -1.41395        1.44421       -1.57200
C         -1.82744        0.04280       -1.99337
C         -0.88200       -0.66776       -2.93946
Cl         0.96144       -0.43042        2.77924
Cl        -1.82173       -1.86968        2.31225
C          3.23616        0.38220       -3.83894
C          2.50808        1.45157       -4.32244
C          2.93194       -0.15190       -2.59513
C          1.48239        1.97356       -3.57516
C          1.89244        0.34325       -1.84366
H         -3.43913        2.42540       -1.54176
H          0.57009        4.24215       -1.61539
H          0.03453       -0.95302       -2.42377
H         -1.32312       -1.58285       -3.34198
H         -0.61073       -0.03089       -3.78495
H          4.04998       -0.02403       -4.41706
H          2.74704        1.87603       -5.28413
H          3.54352       -0.94955       -2.20772
H          0.90860        2.80180       -3.95394
H         -2.06458        4.79165       -1.46139
P          1.74310       -0.30115       -0.15865
H         -2.80639        0.12780       -2.48198
P         -2.13841       -0.99412       -0.50987
H         -3.43643       -3.01247       -0.33472
C         -1.65632       -3.72344       -1.29863
C         -2.72243       -2.65121       -1.07557
C         -1.21263       -4.34409        0.02876
H         -3.17638        0.78917        0.65007
C         -4.87938       -0.04966       -0.35779
C         -3.54447       -0.20023        0.38896
H         -4.65381        0.24094       -1.39837
C         -5.68992       -1.34813       -0.39066
H          3.59477       -1.82127       -0.38644
H          2.54216        0.79513        1.85157
C          3.52309        3.28220        1.16134
C          2.69029        2.30218        0.31552
C          2.85839        0.85752        0.80529
C          4.34464        0.46687        0.73596
C          5.21542        1.43432        1.56479
C          5.01295        2.89491        1.11794
H          3.16936        3.25679        2.19947
H          3.37351        4.31709        0.82299
H          3.02635        2.35738       -0.72727
H          1.63204        2.58199        0.28984
H          4.49519       -0.56510        1.07519
H          4.66579        0.48495       -0.31221
H          4.94965        1.34009        2.62511
H          6.27573        1.15173        1.50279
H          5.39047        3.01742        0.09492
H          5.61175        3.57902        1.73582
C          2.67121       -4.31325       -1.04275
C          1.91188       -2.97091       -1.03579
C          2.55792       -1.97742       -0.06798
C          2.58929       -2.56944        1.34927
C          3.37367       -3.89546        1.36956
C          2.76520       -4.90678        0.37790
H          3.68203       -4.15520       -1.43859
H          2.19388       -5.02406       -1.73181
H          0.88484       -3.13602       -0.70356
H          1.83385       -2.54595       -2.04540
H          2.99620       -1.84697        2.06857
H          1.56157       -2.75632        1.68086
H          4.41905       -3.70292        1.09829
H          3.40551       -4.31311        2.38560
H          1.76401       -5.19237        0.72240
H          3.34697       -5.83940        0.37006
H         -0.79374       -3.23344       -1.77995
C         -2.16491       -4.81200       -2.24893
H         -3.69910       -0.73533        1.32576
C         -5.71508        1.07116        0.27106
H         -3.27832       -2.47289       -1.99808
H         -0.83259       -3.59620        0.72377
H         -0.43768       -5.09669       -0.12105
H         -2.05229       -4.83785        0.51860
H         -1.40389       -5.57335       -2.42761
H         -3.03795       -5.31147       -1.82770
H         -2.45724       -4.39752       -3.21515
H         -5.21036       -2.12439       -0.98375
H         -5.83457       -1.73817        0.61730
H         -6.67911       -1.18359       -0.82121
H         -5.19156        2.02763        0.24651
H         -6.66621        1.20089       -0.24764
H         -5.93711        0.84396        1.31419
Fe        -1.07071        2.64614        0.10714
C         -2.44599        3.03657        1.63247
C         -1.62087        4.19780        1.36088
C         -0.23354        3.81833        1.55267
C         -0.20470        2.43092        1.97103
C         -1.56711        1.94508        2.00269
H         -3.53743        3.01324        1.62870
H         -1.98267        5.19423        1.09671
H          0.62812        4.48584        1.47419
H          0.66842        1.86265        2.28984
H         -1.86753        0.95315        2.34768
Pd        -0.29495       -0.89209        0.95735
