171
-217.84655502
P         -1.58554        0.36536       -0.33655
P          1.60157       -0.48283       -0.30562
C         -0.84974        1.24790       -1.71508
C          0.86234       -1.48419       -1.60180
C         -0.08725        0.57399       -2.66204
C          0.52927        1.31673       -3.68733
C          0.33316        2.68682       -3.74216
C         -0.44438        3.33269       -2.80418
C         -1.02900        2.60757       -1.78426
C          1.03373       -2.84587       -1.54169
C          0.41746       -3.66622       -2.46565
C         -0.38431       -3.11225       -3.44086
C         -0.57149       -1.74218       -3.51903
C          0.07625       -0.90385       -2.59128
Cl         1.54604        0.32725        2.90988
Cl        -1.61101       -0.56788        2.84237
C         -1.45283       -1.18697       -4.58273
C          1.37016        0.65422       -4.72202
H         -0.59482        4.39801       -2.86607
H         -1.62868        3.10285       -1.03729
H          1.65210       -3.27109       -0.76811
H          0.55841       -4.73370       -2.41944
H          0.79983        3.24949       -4.53307
H         -0.88009       -3.74795       -4.15506
C         -3.95427       -3.29137       -1.54319
C         -2.95880       -3.42078       -0.58321
C         -2.24693       -2.28166       -0.23150
C         -2.50686       -1.08219       -0.84532
C         -3.47755       -0.97485       -1.81092
C         -4.23126       -2.08504       -2.17479
H         -4.54632       -4.15280       -1.79120
H         -1.49124       -2.31739        0.53350
H         -3.64438       -0.01563       -2.27065
C         -4.22953        3.14528        2.08676
C         -4.82687        2.21250        1.24862
C         -3.99670        1.36944        0.52148
C         -2.63176        1.47391        0.62338
C         -2.05930        2.40443        1.45575
C         -2.85103        3.24696        2.22526
H         -4.85830        3.81117        2.64825
H         -4.41042        0.61833       -0.12665
H         -0.98645        2.45892        1.51297
C          4.50973       -2.81592        2.28014
C          3.16291       -3.16139        2.31239
C          2.29097       -2.46011        1.49035
C          2.74977       -1.44476        0.68925
C          4.07975       -1.10773        0.68068
C          4.99100       -1.79053        1.47377
H          5.19847       -3.35204        2.90400
H          1.23959       -2.69336        1.49025
H          4.40966       -0.29242        0.06074
C          3.75852        3.27711       -1.58949
C          2.80176        3.36030       -0.58499
C          2.12963        2.19762       -0.23456
C          2.40521        1.01315       -0.87080
C          3.35503        0.94488       -1.85990
C          4.05714        2.08389       -2.23705
H          4.30617        4.15823       -1.86594
H          1.40280        2.20937        0.55946
H          3.55493       -0.00907       -2.31756
Pd        -0.01141       -0.08262        1.33528
C         -1.44730       -4.73380        0.98077
C         -2.70338       -4.77645        0.08855
C         -2.49168       -5.85661       -0.98925
C         -3.91752       -5.14121        0.95990
H         -1.57208       -4.03260        1.80551
H         -1.24446       -5.71382        1.41232
H         -0.57330       -4.43603        0.40239
H         -2.26091       -6.82005       -0.53498
H         -3.38051       -5.98623       -1.60514
H         -1.66555       -5.58729       -1.64628
H         -3.76576       -6.09682        1.46143
H         -4.08481       -4.38112        1.72288
H         -4.82342       -5.21680        0.35922
C         -6.71606       -2.20014       -2.42777
C         -5.38873       -1.99588       -3.18007
C         -5.23559       -3.08738       -4.25708
C         -5.42723       -0.62368       -3.88109
H         -7.56512       -2.13592       -3.10801
H         -6.74680       -3.17560       -1.94330
H         -6.84271       -1.44079       -1.65673
H         -5.28042       -4.08552       -3.82372
H         -6.03091       -3.01489       -4.99878
H         -4.28336       -2.99120       -4.77662
H         -6.23161       -0.58729       -4.61564
H         -5.60173        0.17958       -3.16578
H         -4.49236       -0.42308       -4.40342
C         -6.80854        1.02475        0.18151
C         -6.35713        2.12971        1.15723
C         -6.91095        3.47680        0.65839
C         -6.93184        1.81340        2.55018
H         -6.43628        1.21468       -0.82497
H         -6.45113        0.04714        0.50459
H         -7.89601        0.97656        0.12692
H         -7.99621        3.44167        0.56455
H         -6.66192        4.28598        1.34390
H         -6.49538        3.72542       -0.31800
H         -8.01755        1.72569        2.51386
H         -6.52907        0.87350        2.92718
H         -6.68434        2.59474        3.26774
C         -2.95708        4.20670        4.55130
C         -2.24059        4.27545        3.18821
C         -2.40178        5.68070        2.58501
C         -0.74239        4.00145        3.42883
H         -2.49379        4.88402        5.26854
H         -4.00646        4.48560        4.46869
H         -2.90702        3.19765        4.96008
H         -1.90078        5.74500        1.61918
H         -3.45350        5.92162        2.43229
H         -1.97324        6.43915        3.23990
H         -0.33578        4.68874        4.17047
H         -0.58421        2.98600        3.79209
H         -0.16698        4.13373        2.51493
C          1.42991       -3.72929        4.03908
C          2.61102       -4.27616        3.21206
C          3.67999       -4.80342        4.18846
C          2.13149       -5.44057        2.32830
H          1.05029       -4.48611        4.72512
H          1.73973       -2.86503        4.62609
H          0.60330       -3.41884        3.40175
H          4.51360       -5.25749        3.65325
H          4.06659       -3.99984        4.81507
H          3.26056       -5.56448        4.84638
H          1.71518       -6.24594        2.93313
H          1.36273       -5.11149        1.63108
H          2.95727       -5.84682        1.74452
C          6.58273        0.10006        1.88541
C          6.46732       -1.37064        1.44151
C          7.00640       -1.52036        0.00643
C          7.32812       -2.23585        2.38143
H          6.17790        0.23151        2.88862
H          7.62300        0.42482        1.89464
H          6.03368        0.76083        1.21535
H          6.91107       -2.55087       -0.33508
H          6.45985       -0.88569       -0.69010
H          8.05894       -1.24257       -0.04624
H          8.37264       -1.92682        2.34271
H          6.99518       -2.14252        3.41496
H          7.28449       -3.28694        2.09671
C          2.76001        4.44110        1.67414
C          2.49594        4.66005        0.17205
C          1.02131        5.04094       -0.04920
C          3.37809        5.82638       -0.31246
H          2.54816        5.34535        2.24436
H          2.14042        3.64042        2.07525
H          3.80155        4.16981        1.84503
H          0.35452        4.23778        0.25966
H          0.75796        5.93445        0.51648
H          0.83282        5.24230       -1.10291
H          4.43515        5.60714       -0.16296
H          3.21274        6.03023       -1.37025
H          3.14893        6.73841        0.23865
C          4.90210        3.07146       -4.38884
C          5.18539        2.04343       -3.27743
C          5.31729        0.64941       -3.92168
C          6.51667        2.38493       -2.58269
H          4.87314        4.08632       -3.99441
H          5.67448        3.03690       -5.15700
H          3.94352        2.87196       -4.86605
H          6.10929        0.64311       -4.67043
H          5.56504       -0.10614       -3.17644
H          4.39281        0.35504       -4.41671
H          6.49009        3.38339       -2.14762
H          6.72489        1.67696       -1.78056
H          7.34620        2.34948       -3.28867
H         -2.37033       -1.76933       -4.66620
H          2.22244        1.27894       -4.99010
H         -0.95468       -1.20851       -5.55293
H         -1.73681       -0.15557       -4.36978
H          0.79582        0.46878       -5.63055
H          1.75939       -0.30081       -4.36642
