59
-75.79785114
Cl         1.58317        0.90608        2.24401
P          1.60661        0.00897       -0.77123
P         -1.57569       -0.12594       -0.84192
C          0.68922        0.60586       -2.25957
H          0.50340        1.67374       -2.12948
H          1.33950        0.49611       -3.13255
C         -0.60009       -0.15580       -2.41707
H         -0.39716       -1.20065       -2.66228
H         -1.22179        0.24553       -3.22325
C          2.20205       -1.71764       -1.09369
H          1.71151       -2.01647       -2.02911
C          3.24706        0.84222       -0.59732
H          3.51009        0.78390        0.46591
C         -2.44315       -1.71812       -0.44941
H         -2.19125       -1.94737        0.59340
C         -3.03254        1.01699       -0.92558
H         -3.20246        1.21260       -1.99129
C          3.72362       -1.56564       -1.31951
H          4.26313       -2.04519       -0.49407
H          4.03246       -2.12231       -2.21687
C          4.16233       -0.07757       -1.42454
H          4.12514        0.24574       -2.47455
H          5.21151        0.04793       -1.11503
C         -3.93292       -1.35244       -0.57296
H         -4.28406       -1.63046       -1.57616
H         -4.53400       -1.95313        0.12647
C         -4.17458        0.16356       -0.34518
H         -4.24857        0.36199        0.73312
H         -5.14081        0.47667       -0.76953
C          1.81026       -2.66707        0.03844
H          2.07662       -3.69489       -0.24524
H          0.71607       -2.66681        0.13403
C          3.22960        2.29661       -1.05112
H          4.26245        2.66765       -1.10852
H          2.84975        2.34464       -2.07972
C         -2.01125       -2.86498       -1.35635
H         -2.27269       -2.61421       -2.39280
H         -0.91679       -2.94612       -1.34572
C         -2.81895        2.32984       -0.17989
H         -3.76950        2.88039       -0.14861
H         -2.58210        2.10763        0.86817
C          2.42877       -2.33254        1.38948
H          3.51210       -2.45819        1.38791
H          2.03531       -2.96843        2.18593
H          2.22954       -1.29938        1.67231
C          2.40625        3.18996       -0.13650
H          1.37724        2.83789       -0.06179
H          2.37738        4.22439       -0.48607
H          2.81089        3.19488        0.87732
C         -2.63234       -4.19719       -0.96386
H         -2.36488       -4.46957        0.05892
H         -2.30595       -5.01009       -1.61662
H         -3.72203       -4.15693       -1.01107
C         -1.73422        3.20136       -0.78812
H         -1.62401        4.15023       -0.25808
H         -0.76832        2.69933       -0.75718
H         -1.94798        3.42935       -1.83402
Cl        -1.69890        0.39624        2.33981
Pd        -0.04278        0.25122        0.83951
