171
-217.83969090
P         -1.69877        0.64944        0.17854
P          1.48713       -0.19395       -0.20368
C         -0.87893        1.84087       -0.90479
C          0.71362       -0.79747       -1.71392
C         -0.16517        1.49979       -2.04784
C          0.50973        2.51535       -2.75142
C          0.42589        3.82317       -2.30428
C         -0.29197        4.14337       -1.17243
C         -0.93454        3.14367       -0.46853
C          0.89256       -2.09977       -2.10994
C          0.30049       -2.56043       -3.26906
C         -0.47675       -1.70758       -4.02511
C         -0.67885       -0.39201       -3.63937
C         -0.04984        0.08095       -2.47152
Cl         1.92839        0.91566        2.88024
Cl        -1.16952        0.24851        3.45225
C         -1.53482        0.50251       -4.46625
C          1.33435        2.21773       -3.95459
H         -0.34465        5.16462       -0.83213
H         -1.47914        3.37521        0.43510
H          1.50247       -2.75669       -1.51427
H          0.44237       -3.58298       -3.57869
H          0.94443        4.59436       -2.84880
H         -0.93049       -2.06108       -4.93517
C         -2.83699       -3.45643       -1.36349
C         -3.43518       -2.33094       -1.91524
C         -3.03406       -1.08697       -1.44383
C         -2.08408       -0.98702       -0.45719
C         -1.52146       -2.11336        0.09632
C         -1.88744       -3.37658       -0.35140
H         -3.14007       -4.42098       -1.72462
H         -3.47211       -0.18355       -1.83092
H         -0.80725       -2.00968        0.89413
C         -5.66883        2.51219        1.33348
C         -4.93956        1.85784        2.31880
C         -3.71907        1.30153        1.96119
C         -3.25716        1.39633        0.67371
C         -3.99246        2.04409       -0.28852
C         -5.21603        2.62188        0.02387
H         -6.61199        2.94934        1.60235
H         -3.10374        0.80456        2.68777
H         -3.60114        2.10998       -1.29042
C          3.86006       -3.61929        1.65135
C          2.84612       -3.04725        2.40976
C          2.10885       -2.01842        1.84164
C          2.38796       -1.55898        0.57636
C          3.41000       -2.12537       -0.14554
C          4.15697       -3.17657        0.36849
H          4.43658       -4.42039        2.07193
H          1.32288       -1.56272        2.41490
H          3.62944       -1.74749       -1.12886
C          4.57952        2.92652       -1.32076
C          3.78664        3.14681       -0.20068
C          2.84934        2.17914        0.13080
C          2.70027        1.05446       -0.63915
C          3.47867        0.86115       -1.75446
C          4.44562        1.79327       -2.11370
H          5.33570        3.64391       -1.57772
H          2.24629        2.29221        1.01386
H          3.31586       -0.01891       -2.35189
Pd         0.12242        0.46462        1.62343
C         -5.66681       -3.36923       -2.40147
C         -4.53750       -2.49047       -2.97268
C         -3.95044       -3.15551       -4.22941
C         -5.14319       -1.13036       -3.37025
H         -5.31034       -4.37019       -2.16188
H         -6.07124       -2.93017       -1.48960
H         -6.48215       -3.47024       -3.11762
H         -3.52064       -4.12938       -3.99766
H         -4.71835       -3.30000       -4.98919
H         -3.16531       -2.53648       -4.66013
H         -5.93144       -1.25880       -4.11189
H         -5.58088       -0.63277       -2.50525
H         -4.38953       -0.47329       -3.80209
C         -1.75292       -4.61945        1.81098
C         -1.31461       -4.62589        0.33536
C          0.22127       -4.61563        0.24651
C         -1.82277       -5.92502       -0.31945
H         -1.36592       -5.49063        2.33900
H         -1.39650       -3.72697        2.32309
H         -2.83987       -4.63323        1.88862
H          0.64970       -5.47342        0.76449
H          0.54595       -4.65799       -0.79225
H          0.63618       -3.71576        0.69485
H         -1.54425       -5.96750       -1.37234
H         -1.39274       -6.79804        0.17144
H         -2.90684       -6.00664       -0.24330
C         -4.52821        1.00754        4.68270
C         -5.48694        1.77552        3.75114
C         -6.84161        1.04374        3.73676
C         -5.67006        3.19922        4.30794
H         -4.93075        0.95420        5.69405
H         -4.37612       -0.01362        4.33389
H         -3.55773        1.49991        4.74007
H         -7.24571        0.95121        4.74471
H         -7.57414        1.57708        3.13209
H         -6.73251        0.04126        3.32331
H         -4.72276        3.73808        4.30377
H         -6.38196        3.76940        3.71230
H         -6.03902        3.17273        5.33311
C         -7.33045        3.92413       -0.53935
C         -5.99832        3.36127       -1.07068
C         -6.30484        2.38757       -2.22369
C         -5.14603        4.53211       -1.59523
H         -7.87355        4.44257       -1.32948
H         -7.97251        3.12614       -0.16683
H         -7.16132        4.63791        0.26668
H         -6.88372        1.53683       -1.86480
H         -6.87935        2.87995       -3.00809
H         -5.38899        2.00564       -2.67319
H         -4.21104        4.17833       -2.02847
H         -5.67995        5.08994       -2.36431
H         -4.89978        5.22086       -0.78732
C          2.82514       -2.26822        4.78748
C          2.55198       -3.46572        3.85793
C          3.43562       -4.64683        4.30210
C          1.07739       -3.88775        3.98489
H          2.63951       -2.53079        5.82865
H          3.86089       -1.94132        4.69951
H          2.18714       -1.42109        4.53772
H          3.20406       -4.93878        5.32637
H          3.27445       -5.51711        3.66604
H          4.49223       -4.38223        4.26712
H          0.85012       -4.21003        5.00082
H          0.40766       -3.06379        3.74268
H          0.85653       -4.71550        3.31206
C          5.97853       -4.95081        0.23303
C          5.26803       -3.79266       -0.49295
C          6.31055       -2.70883       -0.82547
C          4.65248       -4.33659       -1.79626
H          6.44885       -4.60694        1.15406
H          5.27761       -5.74853        0.47839
H          6.75934       -5.37952       -0.39510
H          5.86327       -1.88888       -1.38569
H          6.73951       -2.29454        0.08667
H          7.12262       -3.11856       -1.42580
H          3.88844       -5.08281       -1.57873
H          4.18653       -3.54135       -2.37717
H          5.41296       -4.80345       -2.42191
C          2.57497        5.13615        0.72155
C          3.92206        4.39078        0.68779
C          5.00091        5.35523        0.15960
C          4.30829        3.95420        2.11337
H          1.78430        4.50719        1.12911
H          2.63936        6.03223        1.33839
H          2.27865        5.43781       -0.28274
H          4.76360        5.69405       -0.84875
H          5.07529        6.23744        0.79532
H          5.98043        4.87775        0.14341
H          4.42798        4.81766        2.76734
H          3.54710        3.30869        2.54993
H          5.24810        3.40269        2.10537
C          4.97644        0.34220       -4.13679
C          5.40233        1.56027       -3.29292
C          6.81525        1.30444       -2.73834
C          5.42712        2.79797       -4.21050
H          5.01079       -0.57595       -3.55093
H          3.96538        0.46743       -4.52341
H          5.64298        0.21033       -4.98898
H          7.17280        2.16024       -2.16651
H          6.81902        0.43742       -2.07819
H          7.52459        1.11884       -3.54467
H          6.09002        2.63643       -5.06045
H          4.43343        3.01483       -4.59970
H          5.78095        3.68177       -3.68169
H         -2.00597        1.27304       -3.85382
H          2.31996        2.67441       -3.86319
H         -2.32925       -0.05889       -4.95973
H         -0.94819        0.99744       -5.24106
H          0.86507        2.61158       -4.85725
H          1.48031        1.14539       -4.08839
