75
-122.81106947
P          1.81946       -0.56303        0.04583
C          3.11332       -1.35901       -0.91892
C          4.42232       -1.24965       -0.50776
C          5.42123       -1.89773       -1.21160
C          5.09944       -2.66432       -2.31386
C          3.78220       -2.79259       -2.70693
C          2.78599       -2.14384       -2.00047
H          1.75237       -2.24193       -2.29207
H          3.52927       -3.39627       -3.56299
H          5.87689       -3.16830       -2.86454
H          6.44773       -1.80808       -0.89609
H          4.65577       -0.67703        0.37593
C          1.71603       -1.50893        1.57638
C          1.52267       -0.89082        2.79061
C          1.53557       -1.63447        3.95556
C          1.74049       -2.99841        3.89786
C          1.92829       -3.61842        2.67871
C          1.91771       -2.86935        1.51574
H          2.08035       -3.33848        0.55836
H          2.08535       -4.68345        2.63202
H          1.74679       -3.58059        4.80483
H          1.37927       -1.15013        4.90539
H          1.34849        0.17106        2.82217
C          2.19928        1.16282        0.40942
C          3.32742        1.83023       -0.00832
C          3.47906        3.18676        0.24327
C          2.46439        3.86216        0.92119
C          1.31809        3.21275        1.32202
C          1.18118        1.83935        1.06595
O          0.01115        1.14728        1.42151
C         -1.19667        1.80785        1.14506
C         -1.36243        3.17032        1.44020
C         -2.56318        3.78203        1.15572
C         -3.60952        3.08018        0.55793
C         -3.41458        1.74608        0.22730
C         -2.22786        1.11797        0.52505
P         -1.81718       -0.55348       -0.00720
C         -1.65106       -1.65047        1.40235
C         -1.78709       -1.16785        2.68353
C         -1.73875       -2.04089        3.75468
C         -1.55609       -3.39158        3.53274
C         -1.41862       -3.87063        2.24483
C         -1.46892       -2.99508        1.17485
H         -1.37844       -3.35385        0.16144
H         -1.27278       -4.92421        2.07222
H         -1.51414       -4.07262        4.36699
H         -1.83963       -1.66620        4.75993
H         -1.92624       -0.11049        2.83927
C         -3.12765       -1.22473       -1.04154
C         -4.37040       -1.40362       -0.47737
C         -5.40115       -1.93040       -1.23489
C         -5.17663       -2.28118       -2.55122
C         -3.92529       -2.11071       -3.10933
C         -2.89721       -1.58396       -2.34962
H         -1.91789       -1.44330       -2.77697
H         -3.74946       -2.38458       -4.13666
H         -5.97884       -2.69019       -3.14355
H         -6.37606       -2.06788       -0.79683
H         -4.52609       -1.13720        0.55657
Pd         0.01578        0.08151       -1.36150
Cl        -1.53407        1.18729       -2.57007
Cl         1.52868        0.35538       -3.00102
H         -4.18572        1.20623       -0.29322
C         -4.88260        3.76595        0.21156
H         -4.83415        4.18412       -0.79461
H         -5.09283        4.58039        0.90598
H         -5.72438        3.07318        0.24819
H         -2.68475        4.82615        1.38408
S         -0.00276        4.06379        2.14878
H          2.56730        4.91338        1.12452
C          4.71203        3.89780       -0.18860
H          4.08575        1.30421       -0.55977
H          5.52573        3.72531        0.51697
H          5.03811        3.55247       -1.17060
H          4.54569        4.97371       -0.25459
