45
-71.81440399
C          2.27566        1.48646        2.32549
P          1.50136        0.95549        0.76138
P         -0.98257        0.06700       -0.94239
C         -0.30434       -0.56656       -2.51386
Cl         1.52172       -1.68027        2.42639
H          2.82253        0.65717        2.76491
H          0.75707       -0.34461       -2.57442
Cl        -1.38782       -2.56566        0.84465
C          0.44419        2.22157        0.02831
C         -0.62759        1.82381       -0.74024
C         -1.43051        2.76265       -1.35444
C         -1.15341        4.10937       -1.19808
C         -0.07452        4.50863       -0.43285
C          0.72935        3.56312        0.17942
H         -2.26827        2.43521       -1.94904
H         -1.77885        4.84593       -1.67500
H          0.14386        5.55726       -0.31483
H          1.58103        3.86310        0.76784
Pd         0.13238       -0.92245        0.83373
H         -0.81062       -0.09705       -3.35241
H          1.51069        1.81372        3.02379
H         -0.44031       -1.64276       -2.57100
C         -5.43215       -0.69398       -0.37357
C         -4.74356        0.12614        0.49805
C         -3.39210        0.35330        0.30713
C         -2.74171       -0.23627       -0.75294
C         -3.42277       -1.05857       -1.62138
C         -4.77387       -1.28744       -1.43254
H         -6.48427       -0.87440       -0.22483
H         -5.25536        0.58571        1.32755
H         -2.83798        0.98682        0.98223
H         -2.89733       -1.52436       -2.43903
H         -5.31042       -1.93217       -2.10913
C          4.51038       -0.51292       -2.31171
C          4.31217       -1.22358       -1.14402
C          3.40448       -0.76532       -0.20733
C          2.70954        0.39845       -0.44066
C          2.89620        1.10616       -1.60556
C          3.80266        0.65020       -2.54556
H          5.21640       -0.86896       -3.04409
H          4.85741       -2.13567       -0.96512
H          3.20913       -1.31910        0.69700
H          2.33003        2.00753       -1.77634
H          3.95436        1.20121       -3.45914
H          2.96559        2.30513        2.14209
