59
-75.80275040
Cl         1.51624        0.38830        2.37540
P          1.45322        0.13329       -0.83091
P         -1.72293       -0.16200       -0.76426
C          0.46078        0.20032       -2.38561
H          0.15406        1.23637       -2.54951
H          1.09855       -0.09164       -3.22559
C         -0.74111       -0.68967       -2.23787
H         -0.43578       -1.72801       -2.08457
H         -1.39040       -0.66269       -3.11849
C          2.66510       -1.26413       -0.81532
H          2.86066       -1.52107       -1.86358
C          2.61478        1.55832       -0.57847
H          2.35648        1.99025        0.39612
C         -3.12806       -1.31726       -0.41393
H         -3.30051       -1.26535        0.66811
C         -2.69646        1.36821       -1.16400
H         -2.41469        1.65710       -2.18364
C          3.90993       -0.62150       -0.18068
H          3.85440       -0.74768        0.90965
H          4.82112       -1.15276       -0.49595
C          4.00254        0.89043       -0.52215
H          4.49210        1.01023       -1.49825
H          4.65034        1.41363        0.19728
C         -4.29222       -0.64905       -1.16236
H         -4.28450       -0.99084       -2.20696
H         -5.25663       -0.98155       -0.74792
C         -4.16620        0.89731       -1.11485
H         -4.62107        1.26523       -0.18500
H         -4.74582        1.36230       -1.92627
C          2.12971       -2.47674       -0.06609
H          1.18051       -2.78543       -0.52230
H          1.87823       -2.17781        0.96005
C          2.48597        2.61188       -1.67307
H          2.72066        2.14690       -2.63973
H          1.43895        2.92963       -1.75447
C         -2.85014       -2.75847       -0.82241
H         -3.78969       -3.32790       -0.79824
H         -2.53058       -2.77696       -1.87210
C         -2.39936        2.50282       -0.18711
H         -3.17855        3.27178       -0.28561
H         -2.49985        2.11813        0.83671
C          3.10123       -3.64728       -0.04921
H          2.68988       -4.51300        0.47492
H          4.03650       -3.38006        0.44582
H          3.35261       -3.96527       -1.06279
C          3.37512        3.82398       -1.43765
H          4.42916        3.54331       -1.40011
H          3.13755        4.30691       -0.48785
H          3.26372        4.57350       -2.22455
C         -1.81492       -3.42719        0.06786
H         -2.16407       -3.48956        1.10036
H         -0.88603       -2.85781        0.08513
H         -1.57783       -4.44092       -0.26269
C         -1.03100        3.13384       -0.38434
H         -0.84407        3.94008        0.32860
H         -0.23491        2.40053       -0.25944
H         -0.93130        3.55243       -1.38757
Cl        -1.75585       -0.27840        2.36958
Pd        -0.09459       -0.04229        0.88121
