58
-89.86846281
P          1.68345        0.30559        0.83678
C          3.14179        1.24637        0.38754
C          3.07093        2.61959        0.34018
C          4.18858        3.35208       -0.01895
C          5.36766        2.70221       -0.32713
C          5.43273        1.32358       -0.27858
C          4.31355        0.59380        0.07964
H          4.34571       -0.48323        0.11513
H          2.13990        3.11184        0.57402
C          1.90718       -1.44650        0.49859
C          2.08701       -2.36485        1.50778
C          2.22267       -3.70605        1.19812
C          2.18644       -4.11785       -0.11960
C          2.02424       -3.19159       -1.13030
C          1.88737       -1.85234       -0.81667
H          1.76474       -1.11112       -1.59082
H          2.13426       -2.03398        2.53215
C          1.26540        0.65532        2.58960
C          0.04658       -0.09261        3.10735
C         -1.28529        0.45310        2.61488
P         -1.68840        0.06499        0.86341
C         -1.63673       -1.69582        0.49917
C         -1.60103       -2.07352       -0.82419
C         -1.52999       -3.41271       -1.15988
C         -1.50008       -4.36743       -0.16313
C         -1.55234       -3.98617        1.16320
C         -1.62578       -2.64544        1.49518
H         -1.68912       -2.34150        2.52689
H         -1.62940       -1.31096       -1.58681
C         -3.30282        0.75323        0.49145
C         -4.33503       -0.07532        0.11480
C         -5.57416        0.46193       -0.18385
C         -5.76852        1.82687       -0.10451
C         -4.72866        2.65449        0.27116
C         -3.49031        2.11406        0.56969
H         -2.66534        2.74870        0.85314
H         -4.16554       -1.13793        0.05027
Pd        -0.04999        0.80388       -0.59966
Cl         1.45673        1.25485       -2.20813
Cl        -1.74627        1.20528       -2.02717
H         -2.11738        0.05312        3.19974
H         -1.32000        1.53846        2.72426
H          0.12851       -1.15242        2.83936
H          0.05586       -0.07308        4.20838
H          2.16121        0.40018        3.16126
H          1.12806        1.73375        2.68648
H          4.13638        4.42750       -0.06273
H          6.35161        0.81632       -0.52281
H          2.35590       -4.42924        1.98587
H          1.99911       -3.50987       -2.15945
H         -1.49308       -3.70799       -2.19548
H         -1.53510       -4.73257        1.94029
H         -6.38405       -0.18366       -0.48149
H         -4.87883        3.72009        0.32723
H          6.23782        3.27203       -0.60968
H          2.28738       -5.16373       -0.35960
H         -1.43835       -5.41219       -0.42075
H         -6.73258        2.24749       -0.33988
