105
-153.06543687
Cl        -0.08345        2.52004        2.84132
Pd        -0.46254        1.62680        0.80877
P         -1.09925        0.56399       -1.20044
N         -0.97913       -1.17797       -1.38658
C          0.14287       -2.01621       -1.30287
C          0.28928       -2.83433       -0.15552
C          1.33512       -3.76712       -0.07710
C          1.45791       -4.61955        1.16203
C          2.42525       -5.80538        1.01513
C          3.70807       -5.38212        0.29104
C          3.38996       -4.84495       -1.11329
C          2.23347       -3.87860       -1.14116
C          2.06817       -3.07384       -2.26515
C          1.04874       -2.15902       -2.34929
H          0.93998       -1.54430       -3.22352
H          2.76579       -3.17156       -3.07966
H          4.27318       -4.35367       -1.54148
H          4.21114       -4.59980        0.87344
H          2.65875       -6.24349        1.99574
H          1.78091       -3.98613        1.99594
C         -0.64522       -2.58837        0.97315
C         -0.25594       -1.64280        1.95718
C         -1.21708       -1.16176        2.84663
C         -2.50569       -1.62891        2.80037
C         -2.89769       -2.58178        1.86480
C         -4.33282       -3.03941        1.85503
C         -4.76802       -3.60633        0.49569
C         -3.75962       -4.65199        0.00724
C         -2.35427       -4.04446       -0.14359
C         -1.96753       -3.06676        0.94186
H         -1.60005       -4.84070       -0.17938
H         -4.09417       -5.10060       -0.93865
H         -4.82727       -2.78997       -0.23544
H         -4.98172       -2.20442        2.14792
H         -3.23570       -1.25217        3.49670
H         -0.92694       -0.41159        3.56095
N          1.07097       -1.17453        2.00795
P          1.47344        0.31474        1.16071
C          2.49004        0.01606       -0.28108
C          3.57917       -0.81864       -0.19918
C          4.38320       -1.00580       -1.30968
C          4.09837       -0.36097       -2.50642
C          3.01058        0.49948       -2.55792
C          2.21396        0.68829       -1.44476
H          1.38138        1.36799       -1.47485
H          2.78635        1.01727       -3.47468
C          4.96257       -0.56111       -3.70187
H          5.23578       -1.66081       -1.25420
H          3.80384       -1.31404        0.73183
C          2.42302        1.38817        2.23516
C          2.59544        1.02642        3.54857
C          3.31447        1.84779        4.39835
C          3.86893        3.03215        3.93078
C          3.67666        3.38149        2.60029
C          2.95717        2.55874        1.75248
H          2.80513        2.82559        0.71854
H          4.08942        4.30564        2.23337
C          4.61510        3.93473        4.85050
H          3.44326        1.57613        5.43206
H          2.15541        0.10749        3.90142
H          1.78296       -1.79850        1.65026
H         -1.65285       -1.35962       -0.65056
C         -0.57951        1.49030       -2.63889
C         -0.39477        0.84235       -3.83578
C          0.03826        1.55342       -4.94025
C          0.27282        2.91939       -4.85205
C          0.06305        3.55780       -3.63645
C         -0.37089        2.84500       -2.53422
H         -0.57133        3.33788       -1.59607
H          0.23984        4.61689       -3.55881
C          0.77189        3.67828       -6.03212
H          0.19891        1.05000       -5.87826
H         -0.60144       -0.21309       -3.90066
C         -2.88670        0.76113       -1.05900
C         -3.60853        1.35596       -2.06612
C         -4.98016        1.48348       -1.94650
C         -5.63688        1.02025       -0.81438
C         -4.89162        0.41322        0.18664
C         -3.52059        0.28597        0.06317
H         -2.94077       -0.18102        0.84195
H         -5.39156        0.04448        1.06572
C         -7.11641        1.13507       -0.69238
H         -5.55013        1.94583       -2.73420
H         -3.09752        1.71842       -2.94298
Cl        -2.10989        3.12063        0.46788
H          3.16333       -5.68027       -1.78649
H          1.93578       -6.60516        0.44536
H          4.42134       -6.21692        0.23985
H          0.45916       -4.97795        1.44189
H         -3.72258       -5.47975        0.72647
H         -2.28070       -3.53571       -1.11195
H         -4.46333       -3.80051        2.63344
H         -5.78068       -4.03033        0.55018
H          5.76515        0.17716       -3.72798
H          5.41662       -1.55309       -3.69764
H          4.38632       -0.46552       -4.62332
H          5.38730        4.49025        4.31650
H          3.94124        4.65614        5.31455
H          5.10383        3.37040        5.64593
H          0.37077        3.26957       -6.96065
H          0.47881        4.72772       -5.97912
H          1.86051        3.63522       -6.08769
H         -7.41636        1.25640        0.34943
H         -7.49178        1.99644       -1.24656
H         -7.60772        0.24278       -1.08276
