111
-148.54925909
P         -2.54881        2.03626        0.77139
P          0.11841        0.37504        0.43497
C         -1.47658        1.75981        2.20753
C         -0.28466        1.08978        2.03965
C         -3.37689        3.69058        0.87515
C         -2.71177        4.72690       -0.00383
C         -1.83889        2.21197        3.46068
H         -2.78276        2.71361        3.59573
C         -0.99714        2.00212        4.53941
H         -1.27976        2.35528        5.51771
C          0.20262        1.33953        4.36504
H          0.85678        1.17456        5.20529
C          0.55774        0.87665        3.11089
H          1.48082        0.33878        2.95993
Pd        -1.33484        1.36390       -1.08115
Cl        -2.64279        2.61338       -2.39761
Cl        -0.00874        0.55255       -2.70884
C         -4.83396        3.35871        0.50711
C         -4.03522        0.93244        0.71567
H         -2.76062        4.43786       -1.05344
H         -3.19791        5.70069        0.08961
H         -1.65709        4.84738        0.25421
H         -4.95642        3.46598       -0.57957
H         -5.52099        4.09164        0.95706
H         -4.06760        0.51720       -0.30061
C         -5.20730        1.90909        0.93124
C         -3.93522       -0.17299        1.74418
H         -3.31840        3.99666        1.92717
H         -5.48401        1.89966        1.99439
H         -6.10073        1.56036        0.39153
H         -3.06333       -0.80458        1.56097
H         -3.83453        0.24109        2.74918
H         -4.82225       -0.81061        1.73397
C         -1.18129       -3.99916        0.38547
C         -1.06895       -3.31102        1.62061
C         -0.63908       -1.99482        1.60177
C         -0.39931       -1.34380        0.41991
C         -0.60980       -1.97487       -0.77711
C         -1.03166       -3.29087       -0.83357
O         -1.41747       -5.39976        0.36877
C         -1.38743       -3.97479        2.96992
H         -0.48838       -1.45481        2.51934
H         -0.44068       -1.41225       -1.67743
C         -1.30390       -3.93073       -2.20401
C          4.50783        0.88350       -0.67465
C          3.80177        1.95951       -0.07376
C          2.47690        1.75896        0.27987
C          1.84031        0.57821       -0.00269
C          2.48184       -0.41473       -0.69543
C          3.80219       -0.27721       -1.08896
O          5.92100        0.93315       -0.78820
C          4.41981        3.34234        0.19268
H          1.92377        2.52939        0.79038
H          1.93384       -1.30909       -0.93700
C          4.39755       -1.37275       -1.98946
C         -1.87524       -2.92634        3.99625
C         -2.51419       -5.01351        2.82301
C         -0.11818       -4.64248        3.52009
C         -0.02016       -4.59884       -2.71910
C         -2.44188       -4.96347       -2.11429
C         -1.74552       -2.86066       -3.22908
C         -0.23492       -6.18944        0.38110
H         -2.70906       -2.35018        3.59670
H         -2.21368       -3.41082        4.91185
H         -1.08222       -2.23455        4.27628
H         -3.40429       -4.55532        2.39304
H         -2.21581       -5.83411        2.17540
H         -2.78429       -5.43823        3.78952
H          0.25338       -5.40473        2.83967
H          0.67436       -3.90737        3.65840
H         -0.31165       -5.11571        4.48243
H          0.78262       -3.86847       -2.81344
H          0.31973       -5.37737       -2.04071
H         -0.18103       -5.05141       -3.69721
H         -2.67784       -5.37304       -3.09614
H         -2.17310       -5.79470       -1.46715
H         -3.34468       -4.50519       -1.71186
H         -2.06621       -3.32619       -4.16065
H         -2.57939       -2.27446       -2.84377
H         -0.93289       -2.17930       -3.47667
H         -0.21321       -6.82822       -0.50168
H          0.64955       -5.55119        0.39121
H         -0.23186       -6.82975        1.26298
C          6.58050        0.38411        0.34027
C          5.73274        3.55438       -0.58122
C          3.43999        4.44222       -0.27299
C          4.67993        3.50324        1.69931
C          4.60309       -2.65579       -1.16748
C          3.41760       -1.66190       -3.14821
C          5.73356       -0.95073       -2.62465
H          6.10380        4.57121       -0.45513
H          6.50847        2.87582       -0.23409
H          5.58429        3.37546       -1.64557
H          2.52271        4.44302        0.31331
H          3.88892        5.43011       -0.17299
H          3.17150        4.29928       -1.31933
H          3.75680        3.39337        2.26768
H          5.38242        2.75365        2.05875
H          5.09548        4.48612        1.92004
H          3.66120       -3.00349       -0.74408
H          5.00679       -3.45532       -1.78814
H          5.29555       -2.48708       -0.34458
H          3.83802       -2.38919       -3.84219
H          2.47272       -2.06394       -2.78784
H          3.20167       -0.75015       -3.70437
H          6.08526       -1.69925       -3.33428
H          6.50618       -0.82399       -1.87003
H          5.62518       -0.00442       -3.15346
H          7.65826        0.42177        0.18042
H          6.32925        0.95442        1.23315
H          6.27316       -0.65054        0.48590
