111
-148.55400414
P         -2.51678        2.13179        0.92253
P          0.09284        0.36346        0.52869
C         -1.46726        1.73409        2.34828
C         -0.31219        1.00543        2.16275
C         -3.22247        3.83838        1.05346
C         -2.53276        4.80106        0.11166
C         -1.82166        2.14841        3.61635
H         -2.73650        2.69924        3.76119
C         -1.00964        1.83988        4.69422
H         -1.28585        2.16334        5.68454
C          0.15209        1.11661        4.50327
H          0.78304        0.87497        5.34273
C          0.49992        0.69392        3.23279
H          1.39446        0.11387        3.06688
Pd        -1.29208        1.49354       -0.93131
Cl        -2.90508        2.47973       -2.14133
Cl         0.01883        0.85329       -2.63880
C         -4.71844        3.61159        0.76702
C         -4.07413        1.13517        0.85261
H         -2.94978        5.80749        0.19358
H         -1.46141        4.85908        0.31828
H         -2.64867        4.48116       -0.92453
H         -4.89827        3.76377       -0.30617
H         -5.32761        4.37138        1.27994
H         -4.16643        0.78851       -0.18545
C         -5.16512        2.17583        1.16695
C         -4.01979       -0.03753        1.80769
H         -3.07927        4.15384        2.09471
H         -5.38241        2.14634        2.24354
H         -6.10800        1.90461        0.66816
H         -3.19679       -0.71091        1.55824
H         -3.86427        0.30406        2.83272
H         -4.94737       -0.61428        1.78631
C         -1.17862       -3.98757        0.09228
C         -1.19415       -3.38507        1.37687
C         -0.79303       -2.06412        1.48732
C         -0.46647       -1.33151        0.37661
C         -0.56318       -1.87657       -0.87588
C         -0.94936       -3.19199       -1.05891
O         -1.35274       -5.39115       -0.03753
C         -1.60254       -4.15189        2.64437
H         -0.71841       -1.59048        2.44999
H         -0.32040       -1.24903       -1.71558
C         -1.07683       -3.73723       -2.48932
C          4.46208        0.75087       -0.68572
C          3.85285       -0.52857       -0.63269
C          2.52218       -0.60349       -0.25959
C          1.82531        0.51513        0.11516
C          2.43517        1.74083        0.15966
C          3.76631        1.88713       -0.19738
O          5.75311        0.89808       -1.25931
C          4.59154       -1.82131       -1.01335
H          2.00205       -1.54500       -0.27498
H          1.84764        2.58936        0.46602
C          4.42025        3.27361       -0.08869
C         -2.22035       -3.19399        3.68854
C         -2.66893       -5.21640        2.32834
C         -0.36023       -4.81289        3.26024
C         -1.50041       -2.61376       -3.46374
C          0.28206       -4.29233       -2.94276
C         -2.15495       -4.83272       -2.57192
C         -0.13942       -6.13117        0.01663
H         -2.61410       -3.75119        4.53829
H         -1.48500       -2.49272        4.08002
H         -3.04141       -2.62458        3.25441
H         -2.28083       -5.98046        1.65937
H         -3.00675       -5.71471        3.23665
H         -3.53489       -4.76113        1.84886
H         -0.61741       -5.35774        4.16824
H          0.09813       -5.51362        2.56655
H          0.38791       -4.06306        3.51654
H         -1.72061       -3.01986       -4.45063
H         -2.39423       -2.10478       -3.10405
H         -0.71340       -1.87232       -3.59259
H          0.22642       -4.67838       -3.96022
H          1.04320       -3.51286       -2.91858
H          0.61506       -5.09935       -2.29450
H         -2.28884       -5.17440       -3.59797
H         -1.88922       -5.69761       -1.96935
H         -3.11195       -4.45644       -2.21196
H         -0.18267       -6.84401        0.83992
H         -0.00936       -6.68960       -0.91020
H          0.70948       -5.46123        0.15969
C          5.74037        1.14947       -2.65906
C          4.42384       -2.07684       -2.51896
C          6.08470       -1.73337       -0.65006
C          4.01028       -3.03071       -0.24440
C          4.21696        4.03495       -1.40752
C          3.77903        4.09149        1.05558
C          5.92139        3.15698        0.23257
H          4.92169       -2.99933       -2.81659
H          3.36913       -2.16256       -2.77926
H          4.84319       -1.26411       -3.10669
H          6.59623       -2.67134       -0.86461
H          6.58495       -0.94971       -1.21342
H          6.20916       -1.51368        0.40977
H          2.99777       -3.26739       -0.56859
H          4.61461       -3.92197       -0.41189
H          3.99136       -2.83614        0.82762
H          3.15552        4.14854       -1.62668
H          4.66016        5.02916       -1.35722
H          4.67087        3.50659       -2.24225
H          4.32391        5.02106        1.21884
H          2.74840        4.36146        0.83030
H          3.79094        3.52834        1.98842
H          6.36963        4.14027        0.37303
H          6.46226        2.66137       -0.56958
H          6.07481        2.58077        1.14438
H          6.29624        0.36753       -3.17614
H          4.71532        1.17522       -3.03116
H          6.22623        2.10318       -2.86426
