111
-148.55309075
P         -2.63310        1.88424        0.21746
P          0.17079        0.42827        0.43533
C         -1.78618        1.79647        1.81884
C         -0.54264        1.20765        1.89823
C         -3.55084        3.47946        0.01804
C         -2.81352        4.44115       -0.88802
C         -2.38028        2.30527        2.95617
H         -3.36168        2.74590        2.89396
C         -1.72055        2.23017        4.17077
H         -2.18367        2.62782        5.05905
C         -0.47250        1.64247        4.24694
H          0.03911        1.57986        5.19327
C          0.11557        1.12353        3.10763
H          1.07953        0.64123        3.15414
Pd        -1.06282        1.24165       -1.35168
Cl        -2.55905        1.89722       -2.89070
Cl         0.53485        0.52927       -2.75814
C         -4.92241        3.01593       -0.50611
C         -4.02458        0.67652        0.03174
H         -1.81926        4.67065       -0.49749
H         -2.68298        4.01541       -1.88352
H         -3.35931        5.38066       -1.00155
H         -4.90020        3.02368       -1.60465
H         -5.70599        3.73427       -0.22055
H         -3.87646        0.19142       -0.94248
C         -5.26909        1.58385       -0.00610
C         -4.02328       -0.34733        1.14628
H         -3.65501        3.90618        1.02358
H         -5.69420        1.64284        1.00527
H         -6.05435        1.13019       -0.62966
H         -4.86055       -1.04269        1.05183
H         -3.09990       -0.92975        1.14631
H         -4.10323        0.13965        2.11988
C         -1.41333       -3.83957        0.31657
C         -0.92892       -3.23709       -0.87236
C         -0.43412       -1.94763       -0.79537
C         -0.34217       -1.29048        0.40306
C         -0.70125       -1.91283        1.57002
C         -1.20375       -3.20341        1.56711
O         -2.15302       -5.05009        0.25054
C         -0.99362       -3.92549       -2.24401
H         -0.14439       -1.41674       -1.68472
H         -0.61578       -1.36047        2.48914
C         -1.56439       -3.86614        2.90552
C          4.68401        0.95990        0.09711
C          3.90420        1.95482        0.73965
C          2.53780        1.75190        0.84553
C          1.94232        0.64291        0.30191
C          2.67834       -0.26907       -0.40793
C          4.04510       -0.11559       -0.57100
O          6.10194        1.02519        0.14995
C          4.52620        3.22390        1.34312
H          1.91488        2.45991        1.36410
H          2.16415       -1.10643       -0.84604
C          4.80518       -1.10716       -1.46604
C          0.18481       -3.47206       -3.13541
C         -0.88719       -5.45514       -2.10847
C         -2.31028       -3.54300       -2.93728
C         -1.39676       -5.39465        2.83183
C         -0.62968       -3.36444        4.02970
C         -3.01196       -3.50922        3.27675
C         -3.55332       -4.85990        0.08785
H          0.10840       -2.42019       -3.40600
H          1.13482       -3.62804       -2.62583
H          0.20722       -4.03993       -4.06517
H          0.02317       -5.73048       -1.57704
H         -1.73037       -5.86537       -1.55879
H         -0.86730       -5.93473       -3.08677
H         -2.37669       -2.46306       -3.06827
H         -2.38362       -4.00741       -3.92024
H         -3.17028       -3.85817       -2.35084
H         -1.58869       -5.85716        3.79968
H         -2.08507       -5.83533        2.11502
H         -0.38406       -5.65519        2.52603
H         -0.79632       -3.92415        4.94980
H          0.41570       -3.48727        3.74772
H         -0.80189       -2.31402        4.25963
H         -3.13009       -2.43035        3.37479
H         -3.71012       -3.85105        2.51637
H         -3.29580       -3.96625        4.22435
H         -3.79254       -3.79599        0.06145
H         -3.88189       -5.32802       -0.83987
H         -4.08485       -5.33133        0.91437
C          6.67509        0.31382        1.23965
C          3.50884        4.38727        1.34237
C          4.94658        2.94284        2.79364
C          5.74097        3.68919        0.51954
C          5.26034       -2.30939       -0.62552
C          3.89136       -1.61651       -2.60430
C          6.01825       -0.43496       -2.13442
H          3.98554        5.31799        1.64922
H          3.09235        4.53738        0.34665
H          2.68843        4.20550        2.03513
H          5.37992        3.83055        3.25369
H          4.08790        2.63742        3.39121
H          5.68410        2.14541        2.84239
H          5.46118        3.84565       -0.52171
H          6.14267        4.62487        0.90761
H          6.54111        2.95341        0.54300
H          5.92214       -1.99979        0.17985
H          4.40381       -2.81141       -0.17608
H          5.79321       -3.03523       -1.23925
H          3.09440       -2.25302       -2.22438
H          3.43757       -0.78278       -3.13957
H          4.45847       -2.20813       -3.32251
H          6.75148       -0.11588       -1.39804
H          5.70662        0.44412       -2.69754
H          6.51673       -1.11883       -2.82093
H          7.26921        0.99584        1.84774
H          5.89395       -0.13525        1.85432
H          7.33469       -0.46701        0.86163
