111
-148.55139518
P         -2.73955        1.79636       -0.28543
P          0.17946        0.65082        0.16075
C         -1.80876        2.23447        1.21463
C         -0.51472        1.78714        1.37215
C         -3.95912        3.13730       -0.68468
C         -3.80193        3.65821       -2.09569
C         -2.38946        3.00596        2.20209
H         -3.40966        3.33457        2.09309
C         -1.66710        3.33670        3.33569
H         -2.12139        3.93966        4.10494
C         -0.36735        2.89298        3.48462
H          0.19380        3.14751        4.36866
C          0.20857        2.10924        2.50149
H          1.21405        1.73482        2.61167
Pd        -1.12520        0.95008       -1.72685
Cl        -2.59993        1.17718       -3.39732
Cl         0.40222       -0.10970       -2.98642
C         -5.31907        2.45703       -0.41978
C         -3.88742        0.36511       -0.03873
H         -4.48188        4.48971       -2.29531
H         -2.78180        4.00127       -2.28213
H         -4.02506        2.87473       -2.82054
H         -6.07366        2.86609       -1.10736
H         -5.67368        2.70860        0.59055
H         -3.51795       -0.45506       -0.66984
C         -5.23106        0.91120       -0.56242
C         -3.92185       -0.05782        1.41385
H         -3.77705        3.94955        0.03127
H         -6.05988        0.42392       -0.02821
H         -5.35682        0.63708       -1.62035
H         -4.26397        0.76379        2.04590
H         -4.59758       -0.90190        1.57095
H         -2.93037       -0.35009        1.76475
C         -1.26675       -3.51217        1.30856
C         -0.94695       -3.22581       -0.04300
C         -0.49988       -1.95419       -0.35279
C         -0.31936       -1.00844        0.62068
C         -0.51612       -1.31555        1.94117
C         -0.94708       -2.57445        2.32408
O         -1.94621       -4.71484        1.63817
C         -1.13083       -4.24637       -1.17585
H         -0.29601       -1.67367       -1.37092
H         -0.34797       -0.54621        2.67435
C         -1.09406       -2.88655        3.82104
C          4.72367        0.86649       -0.04199
C          3.94849        1.51423       -1.04110
C          2.56779        1.46587       -0.93503
C          1.96160        0.73856        0.05524
C          2.70477        0.00665        0.94473
C          4.08882        0.01529        0.90084
O          6.11432        1.12737        0.06046
C          4.55262        2.23697       -2.25724
H          1.94570        1.99204       -1.63907
H          2.18651       -0.58370        1.68156
C          4.84331       -0.91933        1.86157
C         -2.54654       -4.10539       -1.75594
C         -0.10749       -3.99537       -2.30712
C         -0.90189       -5.68289       -0.67272
C         -2.49388       -2.46578        4.29397
C         -0.86582       -4.38274        4.10234
C         -0.03940       -2.10924        4.64182
C         -3.36342       -4.59602        1.62814
H         -3.30340       -4.29301       -0.99797
H         -2.70600       -3.09840       -2.14121
H         -2.70582       -4.80864       -2.57285
H          0.90672       -3.95652       -1.91070
H         -0.14707       -4.79285       -3.04865
H         -0.30619       -3.06218       -2.83198
H          0.08440       -5.77795       -0.21977
H         -1.64015       -5.96406        0.07413
H         -0.97070       -6.40014       -1.49020
H         -3.27058       -2.99175        3.74368
H         -2.62824       -2.67937        5.35402
H         -2.64686       -1.39731        4.14402
H          0.10794       -4.69877        3.72959
H         -0.90400       -4.59095        5.17131
H         -1.62231       -4.99716        3.62077
H         -0.05396       -2.42229        5.68555
H          0.96277       -2.28770        4.25265
H         -0.22624       -1.03652        4.62772
H         -3.65862       -3.58377        1.34888
H         -3.78455       -5.30605        0.91653
H         -3.75788       -4.82953        2.61690
C          6.40449        2.23955        0.89030
C          3.80613        1.79684       -3.53668
C          4.39794        3.75609       -2.07983
C          6.03795        1.89254       -2.46363
C          6.31804       -1.10083        1.46262
C          4.76227       -0.35681        3.29014
C          4.19179       -2.32043        1.83224
H          4.26718        2.22909       -4.42431
H          3.82787        0.71241       -3.64014
H          2.76404        2.11127       -3.52742
H          4.79589        4.29118       -2.94166
H          3.34932        4.03048       -1.96930
H          4.92762        4.10443       -1.19514
H          6.64610        2.26264       -1.64156
H          6.17736        0.81369       -2.52286
H          6.42050        2.33642       -3.38241
H          6.39792       -1.43367        0.42835
H          6.86913       -0.16801        1.55601
H          6.80901       -1.83860        2.09681
H          3.72574       -0.25647        3.61099
H          5.27012       -1.01312        3.99641
H          5.22592        0.62593        3.35230
H          3.17382       -2.30360        2.21799
H          4.75716       -3.02455        2.44217
H          4.15961       -2.70778        0.81429
H          6.03327        2.06049        1.89815
H          7.48366        2.39027        0.92504
H          5.92831        3.13522        0.49461
