111
-148.55077432
P         -1.67877        2.81325        0.08565
P         -0.48594       -0.08565        0.55487
C         -1.59766        2.12725        1.76798
C         -1.15290        0.83423        1.95437
C         -0.55689        4.26264       -0.12884
C          0.45840        3.98465       -1.21710
C         -1.93881        2.89579        2.86271
H         -2.23200        3.92247        2.72202
C         -1.86722        2.35658        4.13557
H         -2.13843        2.95670        4.98879
C         -1.44091        1.05473        4.31537
H         -1.37924        0.63745        5.30695
C         -1.06996        0.29469        3.22083
H         -0.69497       -0.70930        3.34460
Pd        -1.27787        1.01496       -1.30871
Cl        -2.40439        2.03458       -2.95687
Cl        -0.76131       -0.81744       -2.50795
C         -1.53010        5.41614       -0.45301
C         -3.30371        3.56446       -0.39947
H         -0.04302        3.78175       -2.16573
H          1.12659        4.83565       -1.36973
H          1.07261        3.11313       -0.97747
H         -1.04672        6.11844       -1.14773
H         -1.73717        5.99755        0.45754
H         -3.74309        2.88781       -1.14483
C         -2.87116        4.89682       -1.04610
C         -4.25423        3.73181        0.76680
H         -0.05957        4.42285        0.83672
H         -3.66796        5.64428       -0.91861
H         -2.75962        4.76359       -2.13240
H         -4.40571        2.78805        1.29540
H         -3.86702        4.45884        1.48127
H         -5.23068        4.09392        0.43678
C         -0.92869       -4.61187        0.66225
C          0.20758       -4.00173        1.25280
C          0.31127       -2.62128        1.20174
C         -0.69109       -1.85748        0.66307
C         -1.84047       -2.43465        0.19168
C         -2.00677       -3.80989        0.20779
O         -0.96931       -6.02121        0.49024
C          1.33950       -4.81224        1.90350
H          1.19252       -2.12065        1.56477
H         -2.60009       -1.79146       -0.21874
C         -3.32215       -4.40751       -0.31528
C          3.80548        1.25105       -0.17631
C          3.26206        0.17652       -0.92951
C          1.95376       -0.20094       -0.67972
C          1.22876        0.38067        0.32579
C          1.78740        1.33716        1.13321
C          3.09085        1.76284        0.93971
O          5.01185        1.87016       -0.59321
C          4.03329       -0.59669       -2.01142
H          1.46650       -0.93219       -1.30207
H          1.18639        1.76578        1.91631
C          3.68371        2.75375        1.95572
C          0.80088       -6.10452        2.54387
C          2.39933       -5.14718        0.84302
C          2.01310       -3.99853        3.03197
C         -4.50009       -3.43908       -0.06266
C         -3.20161       -4.64641       -1.82821
C         -3.66289       -5.72368        0.40687
C         -0.41954       -6.47000       -0.74235
H          1.59306       -6.64550        3.06086
H          0.01786       -5.87705        3.26643
H          0.38054       -6.77293        1.79672
H          3.22233       -5.71346        1.27825
H          1.97611       -5.73742        0.03397
H          2.80915       -4.23609        0.40834
H          2.56300       -3.14397        2.64047
H          1.27164       -3.63412        3.74255
H          2.72690       -4.61388        3.57922
H         -4.42063       -2.53969       -0.67138
H         -5.44957       -3.91130       -0.31389
H         -4.54053       -3.14296        0.98523
H         -4.12645       -5.05497       -2.23448
H         -2.98640       -3.71342       -2.34870
H         -2.39813       -5.34292       -2.05485
H         -3.70786       -5.56937        1.48442
H         -4.62681       -6.11221        0.07915
H         -2.91670       -6.48944        0.21101
H         -1.17948       -7.00950       -1.30733
H         -0.06196       -5.62333       -1.32982
H          0.40716       -7.15291       -0.54740
C          4.79422        2.92878       -1.51137
C          5.54656       -0.32486       -1.96192
C          3.83866       -2.11294       -1.78890
C          3.48690       -0.21534       -3.39746
C          3.05979        4.14257        1.74354
C          3.36293        2.27159        3.38793
C          5.21510        2.85579        1.84774
H          5.76923        0.71037       -2.20920
H          5.94004       -0.52224       -0.96537
H          6.08242       -0.95567       -2.67080
H          4.42365       -2.68940       -2.50502
H          4.15930       -2.39675       -0.78699
H          2.79769       -2.40961       -1.90608
H          3.99989       -0.76812       -4.18393
H          2.42259       -0.43642       -3.47167
H          3.61900        0.84713       -3.59307
H          1.98123        4.10873        1.88975
H          3.46938        4.86543        2.44861
H          3.24870        4.51080        0.73701
H          3.72837        1.25678        3.54258
H          3.83487        2.91579        4.12939
H          2.29258        2.27819        3.58744
H          5.51548        3.28654        0.89554
H          5.67243        1.87023        1.92752
H          5.62368        3.48564        2.63763
H          4.24400        2.56495       -2.37778
H          4.21763        3.72196       -1.03844
H          5.75585        3.32725       -1.83539
