59
-75.79794220
Cl         1.58726        0.82388        2.28355
P          1.61254        0.00246       -0.77162
P         -1.57854       -0.12546       -0.83548
C          0.69103        0.59836       -2.25797
H          0.50872        1.66691       -2.12959
H          1.33848        0.48545       -3.13260
C         -0.60125       -0.16024       -2.41077
H         -0.40125       -1.20611       -2.65396
H         -1.22256        0.24067       -3.21743
C          2.21509       -1.71944       -1.10400
H          1.73373       -2.00946       -2.04699
C          3.24748        0.84274       -0.58804
H          3.50576        0.78224        0.47626
C         -2.43694       -1.71913       -0.42889
H         -2.16842       -1.94764        0.60991
C         -3.04134        1.00933       -0.92453
H         -3.22421        1.18305       -1.99191
C          3.73801       -1.56056       -1.31525
H          4.27210       -2.03870       -0.48554
H          4.05757       -2.11443       -2.21059
C          4.17090       -0.07020       -1.41381
H          4.13737        0.25612       -2.46302
H          5.21797        0.05890       -1.09869
C         -3.92961       -1.35750       -0.53043
H         -4.29761       -1.64750       -1.52413
H         -4.51708       -1.95160        0.18595
C         -4.17172        0.16036       -0.31585
H         -4.22848        0.37108        0.76119
H         -5.14548        0.46642       -0.72800
C          1.81425       -2.68187        0.01396
H          2.07875       -3.70694       -0.28116
H          0.71962       -2.67869        0.10346
C          3.22358        2.29851       -1.03674
H          4.25438        2.67639       -1.08585
H          2.85022        2.34784       -2.06769
C         -2.01692       -2.86487       -1.34287
H         -2.29225       -2.61266       -2.37540
H         -0.92249       -2.94603       -1.34730
C         -2.82838        2.33812       -0.20729
H         -3.78295        2.88159       -0.17447
H         -2.57640        2.13862        0.84176
C          2.42562       -2.36708        1.37267
H          3.50829       -2.49830        1.37681
H          2.02377       -3.01046        2.15887
H          2.22931       -1.33653        1.66614
C          2.38821        3.18302       -0.12423
H          2.35850        4.21938       -0.46800
H          2.78364        3.18361        0.89323
H          1.35971        2.82702       -0.06126
C         -2.63246       -4.19774       -0.94393
H         -3.72270       -4.15757       -0.97606
H         -2.35091       -4.47169        0.07464
H         -2.31506       -5.00957       -1.60242
C         -1.75900        3.20646       -0.84659
H         -1.98616        3.40853       -1.89500
H         -1.65327        4.16826       -0.33945
H         -0.78748        2.71547       -0.81467
Cl        -1.71735        0.41395        2.30537
Pd        -0.03533        0.28253        0.83031
