75
-122.81343972
P          1.81971       -0.56958        0.05357
C          3.11093       -1.34858       -0.92838
C          4.41759       -1.26431       -0.50413
C          5.41680       -1.89471       -1.22348
C          5.09758       -2.61771       -2.35552
C          3.78259       -2.71969       -2.76357
C          2.78603       -2.08883       -2.04166
H          1.75446       -2.16677       -2.34588
H          3.53177       -3.28873       -3.64364
H          5.87523       -3.10778       -2.91834
H          6.44151       -1.82492       -0.89734
H          4.64875       -0.72325        0.39990
C          1.72172       -1.52617        1.57696
C          1.50321       -0.91706        2.79137
C          1.51761       -1.66556        3.95326
C          1.74794       -3.02531        3.89186
C          1.95992       -3.63641        2.67214
C          1.94857       -2.88240        1.51235
H          2.12973       -3.34400        0.55463
H          2.13646       -4.69825        2.62265
H          1.75459       -3.61150        4.79626
H          1.34139       -1.18869        4.90338
H          1.30673        0.14091        2.82470
C          2.19884        1.15352        0.42621
C          3.33323        1.81679        0.01924
C          3.49286        3.17012        0.28344
C          2.46788        3.85172        0.93893
C          1.31626        3.20594        1.33026
C          1.17754        1.83251        1.07491
O          0.00277        1.14372        1.42059
C         -1.20107        1.80810        1.13551
C         -1.36495        3.17171        1.42669
C         -2.56192        3.78665        1.13331
C         -3.60697        3.08674        0.53114
C         -3.41438        1.75112        0.20565
C         -2.23116        1.12031        0.51142
P         -1.82405       -0.55358       -0.01488
C         -1.65335       -1.64477        1.39930
C         -1.80827       -1.16133        2.67805
C         -1.75748       -2.03122        3.75163
C         -1.55371       -3.37969        3.53456
C         -1.39760       -3.85958        2.24909
C         -1.45043       -2.98722        1.17665
H         -1.34594       -3.34694        0.16493
H         -1.23509       -4.91134        2.08032
H         -1.50961       -4.05820        4.37075
H         -1.87301       -1.65584        4.75505
H         -1.96460       -0.10583        2.83001
C         -3.13982       -1.23204       -1.03820
C         -2.91368       -1.60843       -2.34214
C         -3.94498       -2.14262       -3.09227
C         -5.19515       -2.30322       -2.52867
C         -5.41541       -1.93491       -1.21642
C         -4.38149       -1.40071       -0.46853
H         -4.53373       -1.12053        0.56227
H         -6.38941       -2.06473       -0.77402
H         -5.99971       -2.71850       -3.11341
H         -3.77244       -2.43050       -4.11630
H         -1.93497       -1.47596       -2.77348
Pd         0.02502        0.04981       -1.36829
Cl        -1.55155        1.16135       -2.54279
Cl         1.55320        0.49458       -2.95510
H         -4.18392        1.21237       -0.31845
C         -4.87527        3.77570        0.17385
H         -4.82229        4.18116       -0.83729
H         -5.08218        4.59990        0.85765
H         -5.72112        3.08830        0.21719
H         -2.68154        4.83163        1.35877
S         -0.00870        4.06342        2.14310
H          2.56719        4.90539        1.13125
C          4.70726        3.89159       -0.18153
H          4.08913        1.29033       -0.53524
H          4.57317        4.25566       -1.20089
H          4.92526        4.74862        0.45698
H          5.58073        3.23833       -0.16941
