75
-122.81821253
P          1.84927       -0.54951       -0.01807
C          3.18660       -1.25324       -0.99616
C          2.96320       -1.75401       -2.25797
C          4.00912       -2.30737       -2.97329
C          5.27102       -2.36386       -2.41581
C          5.48828       -1.87350       -1.14362
C          4.43976       -1.32043       -0.43065
H          4.58970       -0.94803        0.57084
H          6.47133       -1.92316       -0.70499
H          6.08698       -2.79382       -2.97351
H          3.83862       -2.69187       -3.96544
H          1.97419       -1.70465       -2.68354
C          1.68856       -1.58756        1.43821
C          1.80977       -1.05099        2.69936
C          1.77162       -1.88002        3.80522
C          1.61396       -3.24171        3.63825
C          1.49075       -3.77529        2.37054
C          1.53105       -2.94351        1.26582
H          1.45307       -3.34540        0.26768
H          1.36400       -4.83744        2.24063
H          1.58005       -3.88869        4.49954
H          1.86137       -1.46275        4.79464
H          1.92996        0.01393        2.81262
C          2.22452        1.14893        0.44643
C          3.38483        1.80163        0.10151
C          3.55480        3.14588        0.40260
C          2.51129        3.82958        1.02548
C          1.33664        3.19210        1.35813
C          1.19280        1.82298        1.08204
O          0.00809        1.13697        1.39483
C         -1.18531        1.80648        1.07814
C         -1.34446        3.17609        1.34255
C         -2.52101        3.79992        0.99160
C         -3.55303        3.10021        0.36735
C         -3.37227        1.75241        0.08943
C         -2.21002        1.11280        0.45222
P         -1.82049       -0.59627        0.03708
C         -1.70952       -1.58602        1.53583
C         -1.51226       -0.99296        2.76163
C         -1.51724       -1.76271        3.90975
C         -1.71538       -3.12622        3.82189
C         -1.90445       -3.72027        2.58987
C         -1.90361       -2.94554        1.44373
H         -2.06771       -3.39290        0.47611
H         -2.05565       -4.78489        2.52031
H         -1.71459       -3.72867        4.71555
H         -1.35849       -1.29929        4.86955
H         -1.33990        0.06885        2.81357
C         -3.13090       -1.32594       -0.95891
C         -4.40609       -1.35583       -0.44149
C         -5.43160       -1.93168       -1.16960
C         -5.16969       -2.48283       -2.40800
C         -3.88596       -2.46515       -2.91586
C         -2.86301       -1.88913       -2.18535
H         -1.85683       -1.87309       -2.57149
H         -3.68038       -2.89790       -3.88114
H         -5.96770       -2.93048       -2.97762
H         -6.43167       -1.95208       -0.76873
H         -4.59133       -0.93921        0.53636
Pd        -0.01493       -0.03684       -1.39176
Cl        -1.59437        0.88734       -2.71036
Cl         1.57457        0.95643       -2.65598
H         -4.13497        1.21052       -0.44081
C         -4.79687        3.79770       -0.05408
H         -5.01130        4.64783        0.59477
H         -5.65565        3.12623       -0.01590
H         -4.70407        4.16789       -1.07583
H         -2.63511        4.85069        1.19158
S         -0.01326        4.06131        2.11249
H          2.61439        4.87909        1.23767
C          4.79797        3.85778        0.00415
H          4.15447        1.27225       -0.43172
H          5.00312        4.69601        0.67125
H          5.65997        3.19007        0.03565
H          4.71083        4.24755       -1.01077
