105
-153.06001277
Cl         0.57711        3.77595        1.39076
Pd        -0.06410        1.97549        0.19568
P         -0.73257        0.24351       -1.29225
N          0.10833       -1.17279       -1.95092
C          0.17985       -2.50351       -1.55072
C         -0.15817       -2.98022       -0.25469
C          0.14520       -4.31561        0.09033
C         -0.02550       -4.75913        1.52544
C          0.76780       -6.02586        1.87732
C          0.52959       -7.11489        0.82739
C          0.97129       -6.64074       -0.56688
C          0.65108       -5.19589       -0.86864
C          0.90309       -4.72528       -2.15027
C          0.69178       -3.41122       -2.47745
H          0.93502       -3.05907       -3.46504
H          1.30027       -5.40489       -2.88539
H          2.05316       -6.78319       -0.67616
H          1.04522       -8.04450        1.10691
H          1.83767       -5.78543        1.91555
H          0.26775       -3.93527        2.18857
C         -0.73723       -2.10514        0.79985
C          0.09687       -1.12806        1.40321
C         -0.35442       -0.44667        2.53368
C         -1.60083       -0.70116        3.04417
C         -2.45300       -1.62710        2.44887
C         -3.80540       -1.85534        3.08416
C         -4.76020       -2.76441        2.28797
C         -4.00339       -3.89036        1.57565
C         -2.94806       -3.30254        0.62935
C         -2.02461       -2.33024        1.31906
H         -2.37211       -4.09926        0.14499
H         -4.69533       -4.55053        1.03376
H         -5.29737       -2.16650        1.54209
H         -4.27542       -0.87927        3.25945
H         -1.94043       -0.16853        3.91626
H          0.27903        0.29467        2.98488
N          1.26542       -0.77956        0.73147
P          1.82664        0.83430        0.94799
C          2.94468        1.28711       -0.37213
C          3.17904        2.61820       -0.62264
C          3.95689        2.98541       -1.70516
C          4.49964        2.02009       -2.54321
C          4.23700        0.68169       -2.28125
C          3.45991        0.31607       -1.19702
H          3.24068       -0.72089       -1.00005
H          4.63713       -0.07220       -2.93752
C          5.30282        2.41437       -3.73335
H          4.13287        4.02652       -1.91509
H          2.71081        3.36038        0.00488
C          2.59531        0.96094        2.55960
C          3.30649       -0.11851        3.02622
C          3.90417       -0.05957        4.27303
C          3.79540        1.08306        5.05477
C          3.06246        2.15779        4.56879
C          2.46737        2.09549        3.32342
H          1.89364        2.92278        2.94103
H          2.95879        3.04268        5.17322
C          4.41607        1.13683        6.40741
H          4.45655       -0.90425        4.64780
H          3.37836       -1.00539        2.41603
H          1.11739       -0.88244       -0.27159
H          0.32079       -0.97288       -2.92044
C         -0.60049        1.42948       -2.64000
C         -1.70667        1.98361       -3.23840
C         -1.54578        2.90444       -4.25705
C         -0.27673        3.28065       -4.67727
C          0.82749        2.70330       -4.06545
C          0.66414        1.78216       -3.04717
H          1.52043        1.35115       -2.55407
H          1.81646        2.98373       -4.38509
C         -0.10384        4.25847       -5.78694
H         -2.40836        3.34153       -4.73033
H         -2.69055        1.70345       -2.90004
C         -2.46610       -0.18387       -1.14249
C         -3.01630       -0.95578       -2.13792
C         -4.36177       -1.27726       -2.09665
C         -5.16342       -0.82427       -1.05810
C         -4.58736       -0.05015       -0.05949
C         -3.24274        0.26730       -0.10253
H         -2.79517        0.86632        0.67364
H         -5.19775        0.30498        0.75303
C         -6.60540       -1.19219       -1.00782
H         -4.79691       -1.88594       -2.87073
H         -2.38795       -1.30592       -2.94192
Cl        -2.03861        3.00481       -0.14011
H          0.51499       -7.26929       -1.34230
H          0.50904       -6.38659        2.88292
H         -0.53826       -7.36691        0.80563
H         -1.08819       -4.93195        1.72526
H         -3.51041       -4.52544        2.32206
H         -3.44810       -2.77811       -0.19147
H         -3.64405       -2.28203        4.08142
H         -5.53985       -3.17752        2.94333
H          4.66588        2.51887       -4.61280
H          5.80910        3.36662       -3.56938
H          6.06635        1.66810       -3.95729
H          5.33802        0.55458        6.44038
H          4.66240        2.16193        6.68767
H          3.73711        0.73571        7.16111
H         -0.91781        4.98460       -5.80154
H          0.83045        4.81180       -5.68200
H         -0.08792        3.75046       -6.75214
H         -7.09104       -0.99520       -1.96457
H         -6.72726       -2.25218       -0.78020
H         -7.13499       -0.62219       -0.24327
