105
-153.06549551
Cl         0.13431        2.82146        2.68646
Pd        -0.19803        1.75241        0.72666
P         -0.69649        0.50359       -1.20748
N          0.45363       -0.77841       -1.57403
C          0.52759       -2.16545       -1.36828
C          0.00629       -2.83356       -0.22727
C          0.30598       -4.19766       -0.02706
C         -0.03024       -4.85294        1.29186
C         -0.18514       -6.37564        1.18051
C          1.05759       -6.98529        0.52372
C          1.29330       -6.39398       -0.87751
C          1.01297       -4.91344       -0.99735
C          1.48248       -4.24635       -2.12157
C          1.27198       -2.90247       -2.28801
H          1.67471       -2.39292       -3.14639
H          2.03810       -4.79827       -2.86088
H          2.32689       -6.58146       -1.19526
H          1.93292       -6.78688        1.15506
H         -0.37540       -6.82747        2.16432
H          0.77191       -4.61792        2.00186
C         -0.67666       -2.07765        0.85080
C          0.09182       -1.17208        1.62347
C         -0.51148       -0.51938        2.69735
C         -1.83128       -0.73893        2.99644
C         -2.60524       -1.62266        2.25164
C         -4.04203       -1.83378        2.67311
C         -4.86167       -2.78666        1.78158
C         -3.98749       -3.89343        1.18244
C         -2.84567       -3.27283        0.36747
C         -2.02596       -2.30074        1.17632
H         -2.20706       -4.05119       -0.06539
H         -4.58416       -4.58213        0.56767
H         -5.32381       -2.21737        0.96617
H         -4.53349       -0.85407        2.72704
H         -2.28584       -0.21860        3.82239
H          0.06938        0.18228        3.26893
N          1.41001       -0.90270        1.25171
P          1.89607        0.78124        1.09921
C          2.73255        1.02948       -0.46593
C          2.39018        2.10686       -1.24900
C          2.88197        2.20195       -2.53693
C          3.71810        1.21995       -3.04845
C          4.06287        0.14683       -2.23811
C          3.57611        0.05487       -0.94647
H          3.81988       -0.79289       -0.32555
H          4.70361       -0.62473       -2.62992
C          4.19329        1.29240       -4.45764
H          2.59553        3.02937       -3.16354
H          1.71671        2.85708       -0.86587
C          2.83277        1.38475        2.49343
C          2.95236        0.58675        3.60508
C          3.65256        1.04525        4.70673
C          4.23879        2.30427        4.69482
C          4.09704        3.09759        3.56355
C          3.39672        2.63711        2.46292
H          3.27929        3.25106        1.58387
H          4.53381        4.08155        3.55217
C          4.96669        2.81348        5.88998
H          3.74407        0.42837        5.58428
H          2.49668       -0.39065        3.60244
H          1.69544       -1.33201        0.37857
H          1.30272       -0.29629       -1.84631
C         -0.54945        1.65697       -2.57801
C         -0.91447        2.97684       -2.46671
C         -0.75173        3.83252       -3.53886
C         -0.23247        3.36901       -4.74000
C          0.12462        2.03139       -4.83960
C         -0.03862        1.17908       -3.76213
H          0.24348        0.14115       -3.83568
H          0.53884        1.66292       -5.76248
C         -0.02145        4.29711       -5.88509
H         -1.02590        4.86968       -3.44804
H         -1.32838        3.33200       -1.53906
C         -2.35615       -0.15645       -1.31417
C         -3.38884        0.31303       -0.53873
C         -4.66806       -0.17516       -0.72428
C         -4.92590       -1.12839       -1.70085
C         -3.87645       -1.57132       -2.49444
C         -2.59415       -1.08809       -2.29724
H         -1.77318       -1.43116       -2.90727
H         -4.06797       -2.30148       -3.26203
C         -6.30205       -1.65586       -1.91323
H         -5.47793        0.19365       -0.11838
H         -3.19800        1.08921        0.18177
Cl        -2.07529        2.96140        0.45669
H          0.66587       -6.92051       -1.60669
H         -1.06868       -6.60637        0.57218
H          0.97321       -8.08018        0.47625
H         -0.93135       -4.40745        1.72644
H         -3.56722       -4.50387        1.99136
H         -3.26403       -2.74031       -0.49010
H         -4.03935       -2.21269        3.70227
H         -5.70136       -3.21890        2.34362
H          3.48813        0.79962       -5.12853
H          4.30011        2.32780       -4.78417
H          5.16340        0.80688       -4.57222
H          5.77250        3.48982        5.60139
H          4.29105        3.35753        6.55134
H          5.40967        1.99560        6.45996
H         -0.74818        5.11056       -5.87202
H          0.97643        4.73635       -5.84814
H         -0.12508        3.77637       -6.83806
H         -6.97081       -1.36090       -1.10347
H         -6.72125       -1.27977       -2.84742
H         -6.29819       -2.74589       -1.95963
