111
-148.55639342
P         -2.22649        2.39170        0.37202
P         -0.06101        0.09314        0.58737
C         -1.60455        1.89316        1.99733
C         -0.66567        0.88940        2.08465
C         -2.27474        4.23413        0.21178
C         -1.16921        4.72937       -0.69461
C         -2.06628        2.50777        3.14346
H         -2.80611        3.28807        3.06790
C         -1.58021        2.11376        4.37830
H         -1.93978        2.59214        5.27466
C         -0.63578        1.10846        4.46304
H         -0.25689        0.80237        5.42424
C         -0.17660        0.49371        3.31159
H          0.56135       -0.29169        3.35932
Pd        -1.03378        1.20104       -1.19857
Cl        -2.25464        2.25977       -2.75621
Cl         0.18962       -0.01376       -2.62962
C         -3.69982        4.49876       -0.30835
C         -4.01868        1.99703        0.13045
H         -0.18627        4.45600       -0.30445
H         -1.25965        4.29187       -1.69034
H         -1.20024        5.81572       -0.80652
H         -3.67109        4.54234       -1.40584
H         -4.05003        5.48984        0.01797
H         -4.09416        1.54151       -0.86603
C         -4.68803        3.38385        0.13781
C         -4.52175        1.04551        1.19508
H         -2.15547        4.63767        1.22562
H         -5.04776        3.59823        1.15348
H         -5.58646        3.37827       -0.49782
H         -4.43478        1.49208        2.18705
H         -5.57221        0.78911        1.03884
H         -3.94235        0.11942        1.20412
C         -1.32082       -4.27862        0.32204
C         -0.19244       -3.92941        1.10754
C          0.18272       -2.59706        1.16708
C         -0.54585       -1.62987        0.52427
C         -1.70185       -1.94996       -0.13977
C         -2.13879       -3.26081       -0.23071
O         -1.60548       -5.64747        0.06962
C          0.62545       -4.98506        1.86870
H          1.05380       -2.29483        1.72149
H         -2.26386       -1.15609       -0.60005
C         -3.46641       -3.54842       -0.95008
C          4.30261        1.09444       -0.24936
C          3.89414       -0.26593       -0.26997
C          2.56127       -0.55437       -0.02807
C          1.67648        0.43151        0.32071
C          2.09219        1.73070        0.46012
C          3.40809        2.09231        0.22009
O          5.56891        1.46405       -0.77112
C          4.84663       -1.44817       -0.51901
H          2.19691       -1.56118       -0.13270
H          1.36267        2.47133        0.74330
C          3.81264        3.55533        0.46631
C          1.65798       -5.61856        0.92402
C          1.37906       -4.34941        3.05845
C         -0.29882       -6.07273        2.44571
C         -4.14376       -4.81384       -0.39349
C         -4.46209       -2.38384       -0.74206
C         -3.20114       -3.70102       -2.45577
C         -1.03678       -6.14772       -1.13414
H          1.17378       -6.14378        0.10541
H          2.30575       -4.85711        0.49204
H          2.28493       -6.33449        1.45498
H          0.69557       -3.79203        3.69852
H          1.85617       -5.11658        3.66792
H          2.16479       -3.67463        2.72150
H          0.26656       -6.79758        3.03081
H         -1.05541       -5.63008        3.09272
H         -0.81179       -6.61532        1.65489
H         -3.53989       -5.70015       -0.56788
H         -4.29929       -4.72367        0.68107
H         -5.11294       -4.97840       -0.86372
H         -4.58593       -2.16650        0.31834
H         -4.13454       -1.47489       -1.24427
H         -5.44162       -2.63586       -1.14770
H         -2.76665       -2.78853       -2.86361
H         -2.50579       -4.51288       -2.65468
H         -4.12445       -3.90634       -2.99673
H         -1.82563       -6.38434       -1.84734
H         -0.36148       -5.41074       -1.57072
H         -0.48864       -7.06544       -0.92096
C          5.54102        1.69249       -2.17041
C          4.62153       -2.51741        0.57230
C          4.54951       -2.06215       -1.89728
C          6.32837       -1.04052       -0.44689
C          3.29243        4.43026       -0.68594
C          3.19165        4.04990        1.79212
C          5.33693        3.72183        0.59436
H          4.77139       -2.09190        1.56419
H          3.61439       -2.92664        0.53205
H          5.31647       -3.34831        0.45356
H          3.51582       -2.40077       -1.95927
H          4.70843       -1.33659       -2.69286
H          5.19511       -2.91867       -2.08951
H          6.97926       -1.91155       -0.51920
H          6.59221       -0.36566       -1.25741
H          6.54204       -0.53308        0.49318
H          3.53219        5.47978       -0.51738
H          3.73242        4.13494       -1.63597
H          2.21095        4.34343       -0.78177
H          3.54138        5.05332        2.03368
H          2.10489        4.09142        1.74094
H          3.46674        3.39106        2.61525
H          5.73249        3.05989        1.36391
H          5.59951        4.74603        0.85821
H          5.83933        3.48429       -0.34044
H          6.55601        1.87053       -2.52628
H          5.12424        0.82663       -2.68269
H          4.92538        2.56127       -2.39510
