111
-148.55205618
P         -2.54922        2.10880        0.73267
P          0.13968        0.45372        0.47315
C         -1.48340        1.87885        2.18452
C         -0.29739        1.18903        2.05819
C         -3.45951        3.71823        0.83603
C         -3.27924        4.53638       -0.42336
C         -1.85937        2.37595        3.41638
H         -2.79588        2.89944        3.51698
C         -1.04011        2.18658        4.51605
H         -1.33368        2.57486        5.47764
C          0.15039        1.49792        4.38411
H          0.78670        1.34798        5.24074
C          0.52081        0.99290        3.15088
H          1.43902        0.43882        3.03262
Pd        -1.25172        1.47224       -1.07279
Cl        -2.87684        2.14816       -2.45763
Cl         0.15565        0.78070       -2.68539
C         -4.91536        3.27457        1.09076
C         -3.97001        0.92408        0.68465
H         -2.22259        4.72261       -0.62925
H         -3.69487        4.01116       -1.28434
H         -3.78653        5.50142       -0.35177
H         -5.60503        4.00716        0.64658
H         -5.12718        3.28590        2.17007
H         -3.83152        0.29787       -0.20764
C         -5.19231        1.85187        0.52783
C         -3.99752        0.06756        1.93150
H         -3.05135        4.26009        1.69968
H         -6.06265        1.40029        1.02587
H         -5.46607        1.92981       -0.53472
H         -3.07014       -0.49895        2.03991
H         -4.10987        0.68787        2.82270
H         -4.82781       -0.64248        1.91365
C         -1.23188       -3.88649        0.26343
C         -1.13499       -3.24765        1.52676
C         -0.70216       -1.93248        1.56620
C         -0.44634       -1.23937        0.41239
C         -0.64735       -1.81952       -0.81166
C         -1.07515       -3.12947       -0.92520
O         -1.44495       -5.28878        0.19001
C         -1.45348       -3.97287        2.84379
H         -0.54715       -1.43178        2.50539
H         -0.44842       -1.22709       -1.68746
C         -1.32594       -3.70809       -2.32590
C          4.55804        0.70953       -0.61050
C          3.81746       -0.46521       -0.90545
C          2.47681       -0.49378       -0.56349
C          1.88787        0.54800        0.10354
C          2.62468        1.63695        0.48984
C          3.97524        1.72741        0.19175
O          5.84383        0.89854       -1.17899
C          4.40614       -1.71156       -1.58771
H          1.86740       -1.33811       -0.83486
H          2.12859        2.42660        1.02844
C          4.76061        2.91840        0.76746
C         -0.17982       -4.65110        3.37046
C         -1.95806       -2.97641        3.91218
C         -2.56748       -5.01685        2.64522
C         -2.42169       -4.78853       -2.29343
C         -1.81308       -2.60171       -3.29049
C         -0.01584       -4.29457       -2.87376
C         -0.24665       -6.05430        0.16097
H          0.20072       -5.38087        2.65992
H          0.60537       -3.91525        3.54253
H         -0.37218       -5.16624        4.31127
H         -2.28499       -3.50402        4.80793
H         -1.17792       -2.28122        4.21848
H         -2.80415       -2.40157        3.53773
H         -3.45958       -4.55106        2.22778
H         -2.25483       -5.80644        1.96641
H         -2.83970       -5.48441        3.59114
H         -2.11948       -5.64299       -1.69330
H         -3.34097       -4.38923       -1.86625
H         -2.64347       -5.15216       -3.29644
H         -2.66736       -2.07047       -2.87167
H         -1.02979       -1.87556       -3.50225
H         -2.11913       -3.02791       -4.24548
H         -0.15977       -4.70655       -3.87221
H          0.75428       -3.52596       -2.93385
H          0.35964       -5.08877       -2.23282
H         -0.23969       -6.75305        0.99739
H         -0.20122       -6.62981       -0.76338
H          0.62444       -5.40091        0.22541
C          5.79721        1.54662       -2.43930
C          3.90955       -1.77687       -3.04173
C          5.94424       -1.71842       -1.56547
C          3.93745       -2.98022       -0.83935
C          6.28297        2.70662        0.69463
C          4.38234        4.19845        0.00436
C          4.40250        3.09533        2.26004
H          2.82093       -1.80040       -3.08011
H          4.24098       -0.91045       -3.61043
H          4.28324       -2.67002       -3.54175
H          6.33887       -2.65097       -1.96818
H          6.35089       -0.90497       -2.16155
H          6.31424       -1.60366       -0.54724
H          4.40798       -3.87137       -1.25400
H          4.19939       -2.92246        0.21672
H          2.86030       -3.12133       -0.91226
H          6.56345        1.76752        1.17032
H          6.62819        2.67426       -0.33596
H          6.81646        3.51437        1.19512
H          4.90837        5.06278        0.40891
H          4.63419        4.11676       -1.05115
H          3.31268        4.39274        0.07603
H          4.58811        2.17404        2.81152
H          3.35673        3.36500        2.39731
H          5.00249        3.88453        2.71244
H          5.19879        0.96372       -3.13731
H          5.35065        2.53400       -2.33596
H          6.81019        1.64799       -2.82934
