111
-148.55388008
P         -2.47970        2.17745        0.58064
P          0.10973        0.32342        0.46783
C         -1.40197        2.03997        2.02561
C         -0.29194        1.22426        1.98143
C         -2.76024        3.94233        0.10840
C         -1.91094        4.32859       -1.08355
C         -1.69691        2.74873        3.17235
H         -2.55903        3.39583        3.19075
C         -0.88448        2.62553        4.28596
H         -1.11475        3.17591        5.18355
C          0.21900        1.79554        4.24734
H          0.85059        1.69582        5.11477
C          0.51603        1.09475        3.09203
H          1.37455        0.44475        3.05252
Pd        -1.51986        0.91542       -1.08798
Cl        -3.32698        1.35434       -2.33825
Cl        -0.42268       -0.37066       -2.56197
C         -4.27781        3.99016       -0.14486
C         -4.22713        1.64435        0.89517
H         -2.07578        5.36972       -1.37076
H         -0.84665        4.19863       -0.87197
H         -2.15162        3.70651       -1.94771
H         -4.46352        3.78376       -1.20805
H         -4.66458        5.00549        0.03148
H         -4.46632        0.93585        0.09112
C         -5.03444        2.94626        0.72369
C         -4.38989        0.99458        2.25453
H         -2.49739        4.54486        0.98765
H         -5.23130        3.37350        1.71640
H         -6.02513        2.72745        0.29751
H         -3.69916        0.16001        2.38684
H         -4.18675        1.70878        3.05363
H         -5.40642        0.62177        2.39999
C         -0.91287       -4.09737        0.86150
C         -1.93200       -3.11372        0.94504
C         -1.56221       -1.78052        0.86989
C         -0.26315       -1.42163        0.61678
C          0.69684       -2.37349        0.39079
C          0.39933       -3.72274        0.47544
O         -1.19148       -5.44502        1.21156
C         -3.41839       -3.46863        1.10608
H         -2.29117       -0.99849        0.99276
H          1.69003       -2.04826        0.13987
C          1.49878       -4.75339        0.17684
C          4.34943        1.20484       -0.97909
C          3.23314        1.60292       -1.75702
C          1.96517        1.34719       -1.26297
C          1.78165        0.65038       -0.09712
C          2.85911        0.17211        0.60405
C          4.15551        0.40367        0.17456
O          5.65646        1.62999       -1.33788
C          3.37356        2.30345       -3.11815
H          1.09460        1.68361       -1.79795
H          2.67527       -0.39330        1.50016
C          5.32987       -0.18426        0.97367
C         -4.29605       -2.46092        0.32945
C         -3.72944       -4.86195        0.52911
C         -3.79381       -3.41943        2.59435
C          2.47409       -4.21201       -0.89302
C          2.28340       -5.04284        1.46518
C          0.90217       -6.05815       -0.38183
C         -1.02972       -5.71845        2.59749
H         -5.34021       -2.77254        0.33215
H         -4.25811       -1.46785        0.77091
H         -3.97113       -2.38422       -0.70789
H         -3.21274       -5.64411        1.07944
H         -4.79676       -5.07662        0.57600
H         -3.41600       -4.92391       -0.51248
H         -4.84817       -3.65349        2.73918
H         -3.20767       -4.13304        3.16982
H         -3.60809       -2.42830        3.00723
H          3.05748       -3.37157       -0.52186
H          3.18179       -4.98276       -1.19735
H          1.93184       -3.88552       -1.78002
H          2.72980       -4.12993        1.85869
H          1.63373       -5.45281        2.23553
H          3.08395       -5.75926        1.28276
H          0.29796       -5.85590       -1.26555
H          1.68724       -6.76070       -0.66029
H          0.26704       -6.54906        0.35152
H         -0.30895       -6.52565        2.72792
H         -0.67666       -4.82921        3.12128
H         -1.98175       -6.03468        3.02340
C          6.02999        2.88813       -0.79039
C          3.40003        3.82491       -2.90902
C          4.64775        1.84380       -3.84969
C          2.17901        1.95264       -4.03577
C          4.91048       -1.48365        1.69782
C          6.50177       -0.54904        0.04418
C          5.78673        0.83490        2.02829
H          4.23842        4.12315       -2.28422
H          3.48660        4.34820       -3.86093
H          2.48624        4.16232       -2.42029
H          4.65330        0.76045       -3.96511
H          4.71358        2.29109       -4.84117
H          5.54381        2.12482       -3.30224
H          2.34205        2.32916       -5.04524
H          2.04240        0.87338       -4.09868
H          1.25028        2.39390       -3.67731
H          4.47731       -2.19538        0.99653
H          5.77155       -1.96003        2.16610
H          4.18482       -1.29091        2.48659
H          7.30952       -1.02461        0.59993
H          6.17397       -1.23753       -0.73402
H          6.91212        0.33276       -0.44169
H          6.11578        1.76151        1.56459
H          6.61408        0.44190        2.61865
H          4.97067        1.07657        2.70896
H          6.24427        3.58970       -1.59633
H          5.22877        3.28464       -0.16551
H          6.93396        2.77156       -0.19278
