105
-153.05912940
Cl         0.23248        3.53017        1.80334
Pd        -0.10096        1.97288        0.21938
P         -0.72029        0.30451       -1.35971
N          0.12330       -1.12423       -1.98935
C          0.19710       -2.45310       -1.57469
C         -0.13471       -2.93166       -0.27511
C          0.18013       -4.26616        0.06716
C          0.06209       -4.71538        1.50605
C         -0.10240       -6.23401        1.65679
C          1.00021       -6.96606        0.88616
C          0.96505       -6.60165       -0.60775
C          0.68024       -5.14576       -0.89617
C          0.91713       -4.67603       -2.18039
C          0.70303       -3.36199       -2.50419
H          0.93746       -3.01048       -3.49420
H          1.29939       -5.35691       -2.92219
H          1.91580       -6.87373       -1.08373
H          1.97663       -6.69235        1.30549
H         -0.10591       -6.52807        2.71595
H          0.96394       -4.38979        2.03836
C         -0.72715       -2.06511        0.78028
C          0.09073       -1.07442        1.38045
C         -0.37389       -0.38555        2.50027
C         -1.62351       -0.64123        3.00075
C         -2.45939       -1.58621        2.41295
C         -3.81447       -1.81643        3.04048
C         -4.74309       -2.76229        2.25848
C         -3.95828       -3.90400        1.60490
C         -2.89707       -3.34002        0.65059
C         -2.01203       -2.30571        1.30059
H         -2.28872       -4.15008        0.23227
H         -4.63214       -4.59652        1.08085
H         -5.26671       -2.19594        1.47921
H         -4.30150       -0.84307        3.18140
H         -1.97677       -0.09807        3.86085
H          0.24840        0.36795        2.94650
N          1.25972       -0.72513        0.71406
P          1.84192        0.88051        0.94187
C          3.04936        1.27792       -0.31872
C          4.00354        2.23640       -0.07396
C          4.91229        2.56629       -1.06327
C          4.87068        1.93652       -2.30025
C          3.89058        0.98082       -2.53055
C          2.98364        0.65169       -1.54123
H          2.19735       -0.05779       -1.74029
H          3.83524        0.50382       -3.49429
C          5.82664        2.31500       -3.37740
H          5.65817        3.32099       -0.88106
H          4.02823        2.72650        0.88653
C          2.60512        0.93275        2.56443
C          3.40262       -0.12776        2.92302
C          4.01934       -0.13662        4.16201
C          3.83454        0.91477        5.05000
C          3.03068        1.97945        4.66545
C          2.41634        1.98425        3.42818
H          1.77769        2.79878        3.13306
H          2.88797        2.80426        5.34259
C          4.51688        0.91947        6.37371
H          4.64880       -0.96254        4.44601
H          3.53217       -0.94638        2.23193
H          1.11500       -0.84131       -0.28677
H          0.26688       -0.95131       -2.97726
C         -0.69098        1.45292       -2.75307
C         -1.81090        1.64282       -3.52769
C         -1.77904        2.53453       -4.58378
C         -0.62466        3.25037       -4.86937
C          0.49875        3.04096       -4.08244
C          0.46200        2.14826       -3.02774
H          1.33198        1.99951       -2.41280
H          1.40306        3.58382       -4.29880
C         -0.57865        4.19810       -6.01707
H         -2.65536        2.68307       -5.19134
H         -2.71406        1.10232       -3.29951
C         -2.44382       -0.12780       -1.11261
C         -2.99614       -1.03434       -1.98647
C         -4.34061       -1.34953       -1.89642
C         -5.13615       -0.76840       -0.91905
C         -4.55982        0.14356       -0.04465
C         -3.21895        0.46471       -0.14415
H         -2.77944        1.18725        0.52316
H         -5.16968        0.60883        0.71068
C         -6.58444       -1.10400       -0.83295
H         -4.77914       -2.05337       -2.58301
H         -2.37072       -1.48976       -2.73819
Cl        -1.79448        3.21323       -0.60091
H          0.20332       -7.20659       -1.11416
H         -1.08192       -6.53341        1.26317
H          0.91538       -8.05306        1.02568
H         -0.76347       -4.19596        2.00398
H         -3.46671       -4.50054        2.38356
H         -3.39018       -2.88165       -0.21184
H         -3.65895       -2.21195        4.05144
H         -5.53392       -3.15928        2.91040
H          6.03938        1.46738       -4.03036
H          5.41889        3.11910       -3.99153
H          6.77479        2.65735       -2.96046
H          4.67548       -0.09619        6.73887
H          5.48947        1.40878        6.30620
H          3.92410        1.45010        7.12011
H         -1.57488        4.56700       -6.26490
H          0.04563        5.06253       -5.78660
H         -0.16892        3.71311       -6.90412
H         -7.13538       -0.65521       -1.66056
H         -6.73760       -2.18351       -0.87225
H         -7.02289       -0.73985        0.09717
