171
-217.84323198
P         -1.61446        0.38514       -0.43948
P          1.56180       -0.39399       -0.38136
C         -0.91028        1.31993       -1.80083
C          0.90049       -1.36770       -1.73333
C         -0.08429        0.70575       -2.73566
C          0.54560        1.50520       -3.70968
C          0.28365        2.86458       -3.74319
C         -0.57258        3.44681       -2.83301
C         -1.15760        2.67012       -1.85227
C          1.14321       -2.71938       -1.74493
C          0.60391       -3.51236       -2.73873
C         -0.19687       -2.94316       -3.70607
C         -0.45418       -1.58200       -3.71012
C          0.12388       -0.76841       -2.71732
Cl         1.48053        0.46377        2.85410
Cl        -1.71261       -0.45725        2.71762
C         -1.30964       -0.99503       -4.77729
C          1.49735        0.92565       -4.69754
H         -0.77496        4.50446       -2.87804
H         -1.80902        3.12014       -1.12039
H          1.75866       -3.15590       -0.97483
H          0.80446       -4.57119       -2.75450
H          0.76326        3.46947       -4.49427
H         -0.63008       -3.55954       -4.47564
C         -3.90923       -3.36003       -1.52672
C         -2.88214       -3.44085       -0.59374
C         -2.16918       -2.28311       -0.31446
C         -2.48867       -1.09885       -0.93043
C         -3.51088       -1.03304       -1.84505
C         -4.24834       -2.16862       -2.15923
H         -4.46551       -4.24718       -1.75942
H         -1.36248       -2.30106        0.39795
H         -3.74283       -0.08600       -2.30314
C         -4.20857        2.91412        2.29390
C         -4.80745        1.89820        1.55904
C         -4.00467        1.15364        0.70342
C         -2.66635        1.43423        0.58175
C         -2.09485        2.45081        1.30725
C         -2.85410        3.20624        2.19015
H         -4.81629        3.47562        2.97815
H         -4.41186        0.33072        0.14378
H         -1.03786        2.63465        1.21121
C          4.26805       -2.84332        2.32126
C          2.90969       -3.13969        2.28770
C          2.10410       -2.40464        1.42857
C          2.63580       -1.40222        0.65593
C          3.97686       -1.11730        0.70924
C          4.82435       -1.83708        1.53941
H          4.90554       -3.40174        2.97915
H          1.04579       -2.59867        1.38214
H          4.36611       -0.31294        0.11025
C          3.91267        3.27025       -1.59246
C          2.89012        3.40923       -0.66126
C          2.15231        2.27863       -0.33751
C          2.44372        1.06819       -0.91474
C          3.45770        0.94540       -1.83214
C          4.21747        2.05291       -2.18999
H          4.50464        4.12745       -1.85175
H          1.35141        2.33585        0.37926
H          3.65826       -0.02599       -2.25161
Pd        -0.04551       -0.00522        1.26996
C         -2.39881       -4.49677        1.63869
C         -2.51139       -4.74845        0.12129
C         -1.16272       -5.24676       -0.42132
C         -3.57221       -5.84275       -0.10625
H         -3.33103       -4.09169        2.03151
H         -2.18099       -5.42181        2.17217
H         -1.60401       -3.78982        1.87100
H         -0.85248       -6.16433        0.07823
H         -1.23056       -5.44923       -1.48987
H         -0.38511       -4.49929       -0.27191
H         -3.32239       -6.74488        0.45214
H         -4.55519       -5.50817        0.22499
H         -3.63631       -6.11845       -1.15854
C         -6.44098       -1.03949       -2.61315
C         -5.42310       -2.06505       -3.14468
C         -6.14386       -3.41598       -3.32061
C         -4.90400       -1.61036       -4.51939
H         -7.29792       -0.95717       -3.28148
H         -6.80734       -1.33716       -1.63101
H         -5.99460       -0.05006       -2.52206
H         -6.54657       -3.77236       -2.37263
H         -6.97679       -3.32137       -4.01726
H         -5.46792       -4.17314       -3.71762
H         -5.72262       -1.51226       -5.23220
H         -4.40249       -0.64567       -4.45350
H         -4.19676       -2.33571       -4.91978
C         -6.78291        0.49286        0.78886
C         -6.29940        1.59280        1.75327
C         -7.12495        2.86556        1.48691
C         -6.52972        1.11440        3.19798
H         -6.62702        0.79155       -0.24717
H         -6.25587       -0.44490        0.96391
H         -7.84755        0.30097        0.92172
H         -8.19165        2.66611        1.58812
H         -6.86903        3.66052        2.18613
H         -6.94540        3.23595        0.47776
H         -7.57850        0.87077        3.36670
H         -5.93716        0.22367        3.40612
H         -6.24386        1.88075        3.91759
C         -1.08050        3.59572        3.91279
C         -2.16290        4.27345        3.05012
C         -3.15763        4.98778        3.98460
C         -1.51270        5.32422        2.13336
H         -0.57556        4.32189        4.54931
H         -1.52188        2.83220        4.55286
H         -0.32519        3.11162        3.29519
H         -3.93935        5.49009        3.41505
H         -3.62682        4.28274        4.67054
H         -2.64983        5.74262        4.58490
H         -1.02253        6.10347        2.71671
H         -0.76293        4.86978        1.48920
H         -2.26000        5.79661        1.49610
C          1.20932       -3.52450        4.08488
C          2.26446       -4.20201        3.18888
C          3.30283       -4.89365        4.09242
C          1.58870       -5.27135        2.31243
H          0.74169       -4.24684        4.75347
H          1.66601       -2.74459        4.69367
H          0.42179       -3.06171        3.49148
H          4.06426       -5.39959        3.49912
H          3.79425       -4.17402        4.74692
H          2.82651       -5.64251        4.72514
H          1.13491       -6.05015        2.92508
H          0.80498       -4.83427        1.69685
H          2.31373       -5.74141        1.64829
C          6.47094       -0.00945        2.01742
C          6.31623       -1.47646        1.57326
C          6.91264       -1.65505        0.16448
C          7.09837       -2.37070        2.55386
H          6.02636        0.14318        3.00060
H          7.52206        0.27293        2.07334
H          5.98061        0.66988        1.32096
H          6.79425       -2.68345       -0.17619
H          6.42112       -1.00526       -0.55851
H          7.97607       -1.41664        0.15739
H          8.15481       -2.10261        2.56277
H          6.72203       -2.26037        3.57069
H          7.02704       -3.42045        2.26974
C          2.40992        4.56843        1.52054
C          2.54633        4.75352       -0.00423
C          1.21786        5.26218       -0.58619
C          3.63826        5.80963       -0.26305
H          2.20851        5.51997        2.01227
H          1.59553        3.89118        1.77175
H          3.32738        4.15812        1.94174
H          0.42227        4.53572       -0.42776
H          0.91884        6.20190       -0.12224
H          1.30795        5.42794       -1.65946
H          4.60836        5.46298        0.09286
H          3.72112        6.04065       -1.32474
H          3.40650        6.73990        0.25554
C          5.27139        2.99237       -4.27403
C          5.41171        1.94880       -3.14932
C          5.50444        0.55084       -3.79227
C          6.70700        2.21080       -2.35943
H          4.33995        2.85096       -4.82075
H          5.27662        4.00760       -3.87977
H          6.09369        2.91053       -4.98466
H          6.33761        0.50234       -4.49327
H          5.66633       -0.21939       -3.03862
H          4.59511        0.30984       -4.34191
H          6.70413        3.20719       -1.91864
H          6.81762        1.48878       -1.55053
H          7.58148        2.13198       -3.00505
H         -2.02272       -1.72801       -5.15506
H          2.42485        1.49827       -4.71813
H         -0.70598       -0.65701       -5.62018
H         -1.87549       -0.14096       -4.40230
H          1.07441        0.93986       -5.70299
H          1.75418       -0.10553       -4.45185
