58
-89.86544899
P          1.71372        0.34685        0.78917
C          2.99231        1.58680        0.52210
C          4.22097        1.41741        1.12119
C          5.20768        2.37298        0.95518
C          4.95385        3.49972        0.19880
C          3.71531        3.67566       -0.38520
C          2.73146        2.71834       -0.21693
H          1.76046        2.84715       -0.66701
H          4.40141        0.54289        1.72640
C          2.25416       -1.30693        0.32579
C          3.53031       -1.54789       -0.13010
C          3.90218       -2.82953       -0.49351
C          2.99038       -3.86310       -0.40593
C          1.70629       -3.61586        0.03604
C          1.34080       -2.33322        0.39979
H          0.32899       -2.12020        0.69703
H          4.22717       -0.73185       -0.21954
C          1.33543        0.41782        2.58841
C          0.08555       -0.31874        3.03595
C         -1.20938        0.33307        2.57243
P         -1.68294       -0.04483        0.83616
C         -1.98841       -1.80287        0.60198
C         -2.06843       -2.28395       -0.68488
C         -2.26235       -3.63341       -0.91114
C         -2.37961       -4.49669        0.15952
C         -2.31084       -4.01136        1.45049
C         -2.11708       -2.65983        1.67206
H         -2.06932       -2.27445        2.67717
H         -1.97722       -1.59356       -1.50740
C         -3.16141        0.90935        0.48760
C         -3.06728        2.27687        0.36808
C         -4.20012        3.02042        0.08819
C         -5.41734        2.38721       -0.06959
C         -5.50551        1.01418        0.05049
C         -4.37129        0.27326        0.32961
H         -4.42184       -0.79989        0.41929
H         -2.10786        2.75580        0.48633
Pd        -0.05069        0.50331       -0.72025
Cl         1.52286        0.88149       -2.27926
Cl        -1.73536        0.55589       -2.21380
H         -2.05862        0.01426        3.18190
H         -1.15000        1.41880        2.66799
H          0.12427       -1.36045        2.69598
H          0.08416       -0.37983        4.13550
H          2.22393        0.02804        3.09125
H          1.26689        1.47555        2.85049
H          6.17141        2.23849        1.41828
H          3.51464        4.55627       -0.97304
H          4.90115       -3.01938       -0.85037
H          0.98515       -4.41493        0.08705
H         -2.31937       -4.00857       -1.91969
H         -2.40760       -4.68509        2.28601
H         -4.13069        4.09126       -0.01035
H         -6.45453        0.51971       -0.07649
H          5.72194        4.24434        0.06715
H          3.27844       -4.86145       -0.69231
H         -2.52893       -5.55019       -0.01248
H         -6.29976        2.96553       -0.29003
