111
-148.55625406
P         -2.56995        2.02117        0.86440
P          0.14532        0.42973        0.49939
C         -1.46577        1.78851        2.28317
C         -0.26779        1.12904        2.11033
C         -3.41758        3.66551        0.89528
C         -2.84315        4.59595       -0.15068
C         -1.82191        2.25248        3.53323
H         -2.76873        2.74936        3.66750
C         -0.96895        2.06237        4.60686
H         -1.24576        2.42492        5.58337
C          0.23402        1.40607        4.42954
H          0.89660        1.25589        5.26597
C          0.58358        0.93317        3.17746
H          1.51143        0.40433        3.02454
Pd        -1.31318        1.46046       -0.97652
Cl        -2.96282        2.05974       -2.37068
Cl         0.06820        0.84305       -2.64456
C         -4.89690        3.29386        0.67901
C         -4.03495        0.89168        0.87701
H         -2.95973        4.17373       -1.15003
H         -3.34594        5.56588       -0.14196
H         -1.77578        4.76477        0.01107
H         -5.12575        3.37025       -0.39293
H         -5.55307        4.02598        1.17383
H         -4.11714        0.48955       -0.14179
C         -5.20429        1.85007        1.16968
C         -3.86573       -0.22548        1.88357
H         -3.26877        4.07636        1.90187
H         -5.38871        1.86247        2.25278
H         -6.13279        1.47037        0.71665
H         -2.99836       -0.84383        1.64406
H         -3.71482        0.17648        2.88715
H         -4.74451       -0.87380        1.91314
C         -1.20659       -3.91279        0.23534
C         -1.05189       -3.30633        1.50875
C         -0.61933       -1.99173        1.56258
C         -0.41621       -1.26948        0.41643
C         -0.66783       -1.81934       -0.81220
C         -1.10276       -3.12575       -0.93963
O         -1.42639       -5.31257        0.13846
C         -1.31781       -4.06375        2.81906
H         -0.42948       -1.51214        2.50642
H         -0.50757       -1.20444       -1.68047
C         -1.42849       -3.66330       -2.34141
C          4.52138        0.79626       -0.70460
C          3.80864       -0.40081       -0.96826
C          2.47970       -0.46676       -0.58754
C          1.88022        0.56501        0.08560
C          2.59120        1.68458        0.43014
C          3.92827        1.81237        0.08879
O          5.81010        0.99441       -1.26759
C          4.43089       -1.60222       -1.69650
H          1.88383       -1.32836       -0.83164
H          2.08069        2.46605        0.96610
C          4.70377        3.05472        0.55477
C         -1.75320       -3.09009        3.93799
C         -2.45707       -5.08429        2.64409
C         -0.03218       -4.77671        3.26420
C         -1.97706       -2.53103       -3.24100
C         -0.14774       -4.22160       -2.98031
C         -2.51415       -4.75284       -2.28244
C         -0.23301       -6.07743        0.02294
H         -2.05475       -3.63773        4.83060
H         -0.94364       -2.42335        4.23117
H         -2.59958       -2.48348        3.61770
H         -2.69007       -5.57729        3.58756
H         -3.36087       -4.59254        2.28576
H         -2.19043       -5.85657        1.92664
H         -0.18619       -5.31027        4.20179
H          0.29731       -5.49653        2.51893
H          0.77464       -4.05923        3.41218
H         -1.21240       -1.79140       -3.47307
H         -2.33386       -2.92931       -4.19041
H         -2.80984       -2.02083       -2.75768
H          0.60906       -3.44250       -3.06898
H          0.27393       -5.02549       -2.38133
H         -0.34723       -4.61243       -3.97770
H         -3.41067       -4.37423       -1.79262
H         -2.78918       -5.08669       -3.28262
H         -2.17423       -5.62332       -1.72735
H          0.64221       -5.42935        0.08499
H         -0.19587       -6.81672        0.82298
H         -0.22579       -6.60628       -0.92988
C          5.79070        1.61052       -2.54922
C          5.93793       -1.71251       -1.40350
C          3.78234       -2.92345       -1.22160
C          4.19182       -1.45477       -3.20692
C          4.14723        3.57021        1.90166
C          6.19132        2.72856        0.78144
C          4.55998        4.16753       -0.49430
H          6.36404       -2.60010       -1.87054
H          6.48044       -0.84985       -1.78174
H          6.11643       -1.77469       -0.33055
H          4.30611       -3.78325       -1.63874
H          3.81803       -3.00440       -0.13552
H          2.74289       -3.00055       -1.53662
H          4.60945       -2.29995       -3.75339
H          3.12501       -1.40511       -3.42427
H          4.64904       -0.54608       -3.59123
H          4.11778        2.76977        2.64055
H          4.77328        4.36907        2.29855
H          3.14223        3.97554        1.79482
H          6.67891        2.43459       -0.14466
H          6.72644        3.59232        1.17520
H          6.30064        1.90919        1.49113
H          3.51138        4.42490       -0.64163
H          4.96222        3.85725       -1.45566
H          5.08863        5.06820       -0.18323
H          6.36911        2.53379       -2.51974
H          6.24721        0.94596       -3.28249
H          4.76542        1.83228       -2.84836
