59
-75.79749280
Cl         1.47305        0.39948        2.41482
P          1.43751        0.23054       -0.76246
P         -1.73161       -0.10922       -0.75887
C          0.46141        0.40488       -2.32353
H          0.15356        1.44914       -2.41845
H          1.10304        0.17154       -3.17791
C         -0.73553       -0.50004       -2.26204
H         -0.42226       -1.54522       -2.19813
H         -1.37825       -0.40206       -3.14246
C          2.65780       -1.15773       -0.83845
H          2.55489       -1.62099       -1.82776
C          2.56745        1.64081       -0.35000
H          2.12090        2.11721        0.53362
C         -3.09736       -1.33019       -0.48093
H         -3.20309       -1.42411        0.60671
C         -2.74183        1.42402       -1.03004
H         -2.54703        1.74343       -2.06089
C          4.01906       -0.44633       -0.68722
H          4.71619       -1.09234       -0.13559
H          4.47865       -0.30280       -1.67549
C          3.87918        0.92620        0.03025
H          4.73628        1.57690       -0.19599
H          3.91161        0.76742        1.11853
C         -4.31816       -0.60247       -1.06696
H         -4.39176       -0.83902       -2.13768
H         -5.24629       -0.98429       -0.61421
C         -4.19607        0.93330       -0.87790
H         -4.55375        1.20176        0.12562
H         -4.85671        1.46822       -1.57672
C          2.37157       -2.18588        0.25042
H          1.30458       -2.44325        0.22770
H          2.53173       -1.71515        1.22969
C          2.70645        2.66988       -1.47316
H          1.70809        3.03773       -1.74443
H          3.23862        3.55042       -1.08636
C         -2.82429       -2.69951       -1.09154
H         -3.74743       -3.29508       -1.06364
H         -2.59524       -2.57556       -2.15771
C         -2.37733        2.53744       -0.05173
H         -3.16272        3.30585       -0.07803
H         -2.40503        2.13089        0.96807
C          3.20767       -3.45175        0.12509
H          4.27506       -3.23903        0.20046
H          3.04403       -3.93689       -0.83908
H          2.96553       -4.17913        0.90334
C          3.42206        2.15683       -2.71381
H          3.41820        2.89303       -3.52112
H          2.95810        1.24897       -3.09857
H          4.46579        1.91755       -2.50380
C         -1.70383       -3.44662       -0.38547
H         -0.77437       -2.87800       -0.40809
H         -1.50590       -4.41942       -0.84119
H         -1.94504       -3.61758        0.66542
C         -1.02652        3.17626       -0.33134
H         -0.99433        3.61123       -1.33205
H         -0.79342        3.97122        0.38066
H         -0.22210        2.44384       -0.27295
Cl        -1.81927       -0.38127        2.36299
Pd        -0.14016       -0.02890        0.92120
