59
-75.79984659
Cl         1.58060        0.51700        2.31571
P          1.51687       -0.04154       -0.84617
P         -1.67062       -0.16447       -0.77611
C          0.49888        0.16596       -2.37395
H          0.21401        1.21831       -2.45599
H          1.11225       -0.07902       -3.24696
C         -0.71969       -0.70348       -2.26331
H         -0.43883       -1.75295       -2.14740
H         -1.36868       -0.62791       -3.14144
C          2.71482       -1.43651       -1.09722
H          2.69277       -1.61066       -2.18165
C          2.71904        1.34967       -0.60029
H          2.68266        1.60103        0.46637
C         -3.07019       -1.29582       -0.32040
H         -3.02210       -1.41114        0.76970
C         -2.64322        1.34258       -1.23190
H         -2.16877        1.79737       -2.11034
C          4.07014       -0.81766       -0.71321
H          4.27673       -1.01756        0.34524
H          4.88523       -1.30607       -1.26863
C          4.07756        0.71687       -0.94951
H          4.30398        0.92324       -2.00450
H          4.88377        1.19772       -0.37499
C         -4.33864       -0.50810       -0.71981
H         -5.03095       -1.17567       -1.25205
H         -4.88006       -0.19167        0.18370
C         -4.01600        0.73794       -1.58887
H         -4.80000        1.50196       -1.47838
H         -4.02777        0.45320       -2.65188
C          2.34547       -2.72859       -0.36686
H          3.01732       -3.53060       -0.70328
H          1.34492       -3.03865       -0.69518
C          2.36367        2.57592       -1.43221
H          2.39475        2.30463       -2.49563
H          1.32058        2.85631       -1.23411
C         -2.94269       -2.66836       -0.97082
H         -3.89961       -3.20210       -0.88558
H         -2.78122       -2.53684       -2.04853
C         -2.69285        2.34606       -0.08205
H         -3.53404        3.03515       -0.24158
H         -2.93309        1.80594        0.84354
C          2.38261       -2.64953        1.15257
H          3.39460       -2.49185        1.52785
H          2.01139       -3.56645        1.61645
H          1.77227       -1.82954        1.52738
C          3.27878        3.76108       -1.16320
H          3.00272        4.63544       -1.75708
H          4.31781        3.52171       -1.39639
H          3.24430        4.05355       -0.11201
C         -1.83175       -3.50469       -0.35229
H         -0.87988       -2.97407       -0.36915
H         -1.69234       -4.45537       -0.87182
H         -2.04475       -3.72969        0.69463
C         -1.40653        3.14252        0.08275
H         -1.46292        3.84226        0.91959
H         -0.55131        2.49186        0.26244
H         -1.18366        3.72180       -0.81531
Cl        -1.69323       -0.21959        2.38030
Pd        -0.04635       -0.02358        0.87239
