87
-129.17824956
P         -1.76821       -0.44096        0.16705
P          1.58319        0.09982       -0.12870
C         -1.44524        0.85863       -1.04891
C          1.22337       -0.89060       -1.58226
C         -0.55392        0.77139       -2.11668
C         -0.31292        1.92328       -2.88995
C         -0.99023        3.09471       -2.59753
C         -1.87470        3.16051       -1.54340
C         -2.08924        2.04033       -0.76354
C          1.98613       -1.99271       -1.88153
C          1.71656       -2.72988       -3.01791
C          0.68096       -2.35449       -3.84862
C         -0.09875       -1.24506       -3.56488
C          0.18729       -0.48368       -2.41396
Cl         1.42600        1.63220        2.69587
Cl        -1.56234        1.00950        3.05458
H         -2.38284        4.08337       -1.31676
H         -2.74859        2.08712        0.09067
H          2.80149       -2.26917       -1.23420
H          2.31189       -3.59691       -3.25282
H         -0.80402        3.96864       -3.19855
H          0.46692       -2.92884       -4.73391
C         -0.57100       -4.72584       -0.79261
C         -1.37883       -4.03554       -1.68463
C         -1.73662       -2.72675       -1.38058
C         -1.29068       -2.13109       -0.22409
C         -0.51918       -2.83620        0.67081
C         -0.14804       -4.13551        0.38138
H         -0.28335       -5.73751       -1.02319
C         -1.84000       -4.68541       -2.94167
H         -2.35577       -2.16769       -2.06097
H         -0.23266       -2.37838        1.60416
H          0.45987       -4.69138        1.07654
C         -6.24968       -0.53229        0.96931
C         -5.76604       -0.61537       -0.32139
C         -4.40290       -0.57729       -0.55105
C         -3.53530       -0.45317        0.50974
C         -4.01727       -0.36328        1.79407
C         -5.38239       -0.41069        2.04590
H         -7.31079       -0.55481        1.15075
H         -6.44926       -0.70830       -1.14965
H         -4.01155       -0.63356       -1.55460
H         -3.32982       -0.22463        2.60882
C         -5.90071       -0.27738        3.43469
C          4.81777       -1.80799        2.45745
C          3.73531       -2.56326        2.05255
C          2.75253       -1.99319        1.26669
C          2.86176       -0.67813        0.88019
C          3.93731        0.07675        1.28756
C          4.92935       -0.47442        2.08970
H          5.58608       -2.25001        3.06870
H          3.65465       -3.59580        2.35072
H          1.90193       -2.57085        0.94908
H          4.00407        1.11003        0.99158
C          6.09830        0.34352        2.51323
C          3.02099        4.15473       -1.59558
C          3.64500        2.99951       -2.02417
C          3.21291        1.77006       -1.56192
C          2.16501        1.70880       -0.67352
C          1.54381        2.85758       -0.24266
C          1.96667        4.10121       -0.69445
H          3.34817        5.11263       -1.96253
H          4.46273        3.05450       -2.72390
H          3.67797        0.85621       -1.89742
H          0.71674        2.79223        0.44362
C          1.26726        5.33931       -0.25648
Pd        -0.02745        0.33073        1.55562
C          0.67067        1.91882       -4.00888
C         -1.21206       -0.87453       -4.48133
H          1.29356        2.81405       -3.98043
H          1.33680        1.05728       -3.95362
H          0.16293        1.89327       -4.97374
H         -1.90619       -0.18125       -4.00464
H         -0.82959       -0.40050       -5.38602
H         -1.78118       -1.75595       -4.78001
H         -2.49203       -4.02496       -3.51487
H         -0.99221       -4.95000       -3.57518
H         -2.39720       -5.59803       -2.72544
H         -6.07890        0.77009        3.68176
H         -6.83994       -0.81826        3.55876
H         -5.18968       -0.67690        4.15927
H          6.53071       -0.03583        3.44014
H          6.87633        0.33285        1.74864
H          5.80784        1.38115        2.68431
H          1.94633        6.19295       -0.24501
H          0.43997        5.57414       -0.92768
H          0.86153        5.22462        0.74976
