87
-129.18698849
P         -1.56751       -0.31167       -0.35816
P          1.69705        0.39228        0.07349
C         -1.21583        0.93514       -1.60316
C          1.55168       -0.70908       -1.35397
C         -0.15088        0.75509       -2.47742
C          0.11638        1.75287       -3.43601
C         -0.69425        2.87480       -3.48658
C         -1.74821        3.03202       -2.61154
C         -2.00575        2.05668       -1.66869
C          2.29756       -1.86286       -1.30165
C          2.18815       -2.81604       -2.29467
C          1.31187       -2.61415       -3.33798
C          0.54244       -1.46603       -3.41009
C          0.67131       -0.48252       -2.41023
Cl         1.14638        0.19566        3.24156
Cl        -1.52693       -1.53612        2.62641
H         -2.36599        3.91372       -2.65985
H         -2.82994        2.16913       -0.98417
H          2.96853       -2.02400       -0.47430
H          2.77577       -3.71817       -2.24645
H         -0.48656        3.63519       -4.22020
H          1.21067       -3.36000       -4.10811
C         -2.12890       -4.38216       -2.28905
C         -1.23130       -4.24776       -1.23864
C         -1.09462       -3.00178       -0.63914
C         -1.81451       -1.92396       -1.09917
C         -2.69507       -2.06184       -2.14618
C         -2.85751       -3.29932       -2.74117
H         -2.25202       -5.34614       -2.75252
C         -0.45189       -5.41312       -0.74023
H         -0.41446       -2.87645        0.18643
H         -3.24123       -1.20046       -2.49777
H         -3.54721       -3.41614       -3.56095
C         -5.19029        0.92835        2.11180
C         -5.24000       -0.22622        1.35572
C         -4.14730       -0.60182        0.59743
C         -3.01539        0.17868        0.59956
C         -2.96255        1.32700        1.35564
C         -4.05315        1.72443        2.11851
H         -6.03728        1.21779        2.71019
H         -6.12706       -0.83821        1.36174
H         -4.16780       -1.50706        0.01319
H         -2.06611        1.92332        1.35779
C         -3.97559        2.95384        2.95349
C          5.63052       -0.36525        2.24042
C          5.47550        0.76820        1.46719
C          4.27809        1.00094        0.81707
C          3.24682        0.09922        0.94147
C          3.40015       -1.03098        1.71113
C          4.59267       -1.27600        2.38098
H          6.56287       -0.54996        2.74629
H          6.28625        1.47169        1.37090
H          4.14213        1.88424        0.21491
H          2.58030       -1.72313        1.81182
C          4.75453       -2.50515        3.20427
C          1.05171        4.80858       -0.77833
C          1.94554        4.08942       -1.54772
C          2.15811        2.74844       -1.28686
C          1.47473        2.14135       -0.25994
C          0.60719        2.86241        0.52797
C          0.37667        4.20898        0.27603
H          0.87089        5.84821       -0.99207
H          2.46701        4.56886       -2.35984
H          2.83652        2.16651       -1.89039
H          0.11846        2.38166        1.35765
C         -0.61002        4.97122        1.08811
Pd        -0.06057       -0.33379        1.42552
C          1.25083        1.62907       -4.39288
C         -0.40862       -1.30258       -4.54494
H          1.81897        2.55895       -4.44455
H          1.94087        0.83870       -4.09546
H          0.88952        1.40130       -5.39646
H          0.11857       -1.02062       -5.45707
H         -0.94307       -2.23327       -4.74056
H         -1.15470       -0.53563       -4.33454
H         -0.28128       -6.14217       -1.53364
H          0.52308       -5.09955       -0.36389
H         -0.98097       -5.91407        0.07158
H         -3.48300        3.76300        2.41236
H         -4.96863        3.30265        3.24006
H         -3.40836        2.76513        3.86600
H          5.03995       -3.35415        2.58157
H          5.52334       -2.37199        3.96660
H          3.82381       -2.75843        3.71410
H         -0.33107        6.02322        1.16199
H         -1.60322        4.91566        0.64001
H         -0.67560        4.57335        2.10187
