75
-122.81273603
P          1.90753       -0.52157       -0.17056
C          3.36299       -1.20732       -0.99280
C          4.32049       -1.80317       -0.20211
C          5.45694       -2.34269       -0.77746
C          5.63065       -2.27988       -2.14540
C          4.67426       -1.67482       -2.93545
C          3.54289       -1.13602       -2.35427
H          2.80728       -0.63498       -2.95786
H          4.81194       -1.61618       -4.00270
H          6.51500       -2.69992       -2.59622
H          6.20382       -2.81157       -0.15812
H          4.17321       -1.84654        0.86538
C          1.62419       -1.57819        1.25330
C          1.89102       -1.12247        2.52399
C          1.79143       -1.98721        3.59829
C          1.43105       -3.30386        3.38959
C          1.16603       -3.75667        2.11223
C          1.26721       -2.88975        1.03884
H          1.08582       -3.23244        0.03199
H          0.88193       -4.78339        1.95035
H          1.34914       -3.97796        4.22651
H          1.99366       -1.63294        4.59562
H          2.17938       -0.09396        2.66837
C          2.26254        1.16586        0.33240
C          3.41344        1.82551       -0.02951
C          3.58603        3.16601        0.28760
C          2.55354        3.83635        0.94293
C          1.39018        3.18898        1.29664
C          1.24601        1.82244        1.00906
O          0.07909        1.12220        1.35511
C         -1.13270        1.78153        1.09346
C         -1.29254        3.14919        1.36687
C         -2.48709        3.76349        1.06350
C         -3.53825        3.05477        0.48301
C         -3.35997        1.70739        0.20253
C         -2.17850        1.07702        0.51574
P         -1.79417       -0.63945        0.11391
C         -1.74553       -1.58403        1.64820
C         -1.41066       -0.97288        2.83462
C         -1.46698       -1.68336        4.01898
C         -1.85283       -3.00885        4.00679
C         -2.17896       -3.62351        2.81417
C         -2.12752       -2.90647        1.63236
H         -2.39623       -3.36951        0.69633
H         -2.47718       -4.65893        2.80335
H         -1.89257       -3.56626        4.92835
H         -1.20129       -1.20496        4.94726
H         -1.08774        0.05429        2.82557
C         -3.09877       -1.37588       -0.88730
C         -4.38412       -1.37953       -0.39461
C         -5.40191       -1.96163       -1.12836
C         -5.12258       -2.54615       -2.34741
C         -3.82895       -2.55641       -2.82948
C         -2.81370       -1.97418       -2.09317
H         -1.79953       -1.98323       -2.45806
H         -3.60947       -3.01644       -3.77895
H         -5.91460       -2.99870       -2.92151
H         -6.40963       -1.96143       -0.74656
H         -4.58338       -0.94219        0.57125
Pd        -0.06656       -0.02360       -1.40681
Cl        -1.76512        0.90810       -2.57418
Cl         1.35130        0.88953       -2.89850
H         -4.14125        1.15997       -0.29330
C         -4.80471        3.74041        0.11259
H         -5.66005        3.07367        0.22909
H         -4.77444        4.07107       -0.92628
H         -4.97819        4.61533        0.74025
H         -2.60169        4.81316        1.26889
S          0.05644        4.04513        2.09253
H          2.65681        4.88359        1.16607
C          4.81721        3.88903       -0.12765
H          4.17368        1.30090       -0.58200
H          5.68081        3.22271       -0.13344
H          4.70289        4.30100       -1.13106
H          5.03841        4.71282        0.55218
