111
-148.55396121
P         -1.60163        2.79755       -0.10403
P         -0.49113       -0.09094        0.50598
C         -1.66695        2.14562        1.59014
C         -1.24399        0.85733        1.84040
C         -0.38337        4.18501       -0.20604
C          0.76582        3.81748       -1.12067
C         -2.10337        2.93798        2.63277
H         -2.39344        3.95781        2.44065
C         -2.14092        2.42662        3.91860
H         -2.48572        3.04408        4.73193
C         -1.73094        1.12969        4.16238
H         -1.75498        0.73415        5.16445
C         -1.27043        0.34502        3.12033
H         -0.91354       -0.65765        3.29643
Pd        -1.26087        0.92861       -1.41860
Cl        -2.36042        1.85463       -3.13416
Cl        -0.74041       -0.97915       -2.49663
C         -1.23058        5.37450       -0.70257
C         -3.14554        3.68757       -0.60659
H          1.30212        2.93952       -0.75501
H          0.40070        3.58149       -2.12239
H          1.48221        4.63736       -1.21158
H         -1.06668        5.49532       -1.78213
H         -0.87850        6.31200       -0.24649
H         -3.28496        3.46401       -1.67222
C         -2.74873        5.16482       -0.43548
C         -4.36057        3.24869        0.18235
H         -0.03356        4.35775        0.82018
H         -2.99285        5.48363        0.58707
H         -3.35635        5.80285       -1.09547
H         -4.23960        3.46076        1.24485
H         -5.26137        3.76732       -0.15352
H         -4.53046        2.17442        0.08036
C         -0.95931       -4.61030        0.76749
C          0.30946       -4.01926        0.99619
C          0.41627       -2.64170        0.90469
C         -0.68420       -1.86062        0.66687
C         -1.92953       -2.41786        0.54474
C         -2.10804       -3.78951        0.62847
O         -1.07200       -6.02087        0.64421
C          1.56768       -4.84826        1.29867
H          1.37195       -2.15664        1.00146
H         -2.76386       -1.76149        0.36484
C         -3.52977       -4.36402        0.52662
C          3.80529        1.31559       -0.03416
C          3.25098        0.37385       -0.93842
C          1.94159       -0.02880       -0.74220
C          1.22427        0.39883        0.34259
C          1.78654        1.23153        1.27358
C          3.08869        1.68111        1.13434
O          5.05687        1.92398       -0.31859
C          4.01982       -0.17605       -2.14898
H          1.43982       -0.65162       -1.46220
H          1.18224        1.54722        2.10553
C          3.68385        2.59040        2.22030
C          1.21754       -6.10877        2.11004
C          2.24949       -5.23860       -0.02149
C          2.57114       -4.03153        2.14480
C         -4.56346       -3.36638        1.09722
C         -3.86534       -4.62544       -0.94967
C         -3.66627       -5.66260        1.34231
C         -0.92453       -6.50072       -0.68645
H          2.11577       -6.66470        2.37766
H          0.69771       -5.84106        3.02933
H          0.57288       -6.77781        1.54550
H          2.52016       -4.35056       -0.59179
H          3.15767       -5.81202        0.16250
H          1.59204       -5.84157       -0.64261
H          3.40249       -4.65712        2.46902
H          2.99684       -3.20427        1.57856
H          2.08953       -3.62771        3.03499
H         -5.55332       -3.81983        1.14420
H         -4.28855       -3.05773        2.10549
H         -4.65009       -2.47574        0.47675
H         -3.80220       -3.70364       -1.52750
H         -3.17378       -5.33863       -1.39138
H         -4.87405       -5.02340       -1.05681
H         -3.38796       -5.49341        2.38196
H         -4.69101       -6.03265        1.32128
H         -3.02571       -6.44819        0.94990
H         -0.72683       -5.67325       -1.36913
H         -0.10076       -7.21309       -0.72846
H         -1.83429       -7.01624       -0.99341
C          4.96226        3.10999       -1.09830
C          3.75522        0.72294       -3.36641
C          5.52994       -0.25661       -1.86212
C          3.54988       -1.61077       -2.48231
C          3.05595        2.27888        3.59814
C          5.20093        2.36858        2.35754
C          3.39090        4.05771        1.87180
H          2.69009        0.75766       -3.59463
H          4.08699        1.74231       -3.18384
H          4.27738        0.35111       -4.24752
H          6.06423       -0.70580       -2.69893
H          5.95575        0.72871       -1.69148
H          5.71983       -0.86005       -0.97510
H          4.17506       -2.05249       -3.25788
H          3.60692       -2.24983       -1.60172
H          2.52550       -1.62599       -2.85109
H          3.56654        2.82812        4.38885
H          2.00607        2.56589        3.63734
H          3.13071        1.21608        3.82692
H          5.61262        2.96675        3.17006
H          5.41826        1.32104        2.56347
H          5.72644        2.64519        1.44696
H          3.82538        4.33055        0.91327
H          3.79792        4.72751        2.62882
H          2.31706        4.23170        1.81036
H          5.40966        3.94152       -0.55403
H          5.51026        2.98068       -2.03140
H          3.91929        3.33902       -1.31924
