87
-129.18690964
P         -1.67553       -0.38487       -0.14220
P          1.57672        0.34942       -0.16705
C         -1.42472        0.92550       -1.36233
C          1.35245       -0.68174       -1.62181
C         -0.46164        0.85857       -2.36694
C         -0.26059        1.98290       -3.19116
C         -1.04184        3.11022       -3.00566
C         -1.99985        3.15439       -2.01694
C         -2.18094        2.06107       -1.19330
C          2.15172       -1.78616       -1.78768
C          1.98893       -2.60063       -2.89069
C          1.01932       -2.30073       -3.82399
C          0.20055       -1.19363       -3.67463
C          0.37258       -0.35857       -2.55257
Cl         1.26678        1.15250        2.93225
Cl        -1.39538       -0.75602        3.07317
H         -2.59646        4.04116       -1.87858
H         -2.91678        2.09666       -0.40717
H          2.90870       -2.01147       -1.05512
H          2.61398       -3.46921       -3.01823
H         -0.88499        3.96478       -3.64187
H          0.88474       -2.93643       -4.68266
C         -0.98541       -4.61581       -1.64886
C         -0.39240       -4.20666       -0.46231
C         -0.63578       -2.91498       -0.01289
C         -1.43588       -2.06096       -0.73667
C         -2.03898       -2.48158       -1.89836
C         -1.81264       -3.76603       -2.35716
H         -0.79312       -5.60998       -2.01473
C          0.52509       -5.10593        0.28845
H         -0.20949       -2.58332        0.91798
H         -2.66496       -1.79775       -2.44944
H         -2.27080       -4.09838       -3.27419
C         -5.75910        0.07908        1.82053
C         -5.55051       -0.91867        0.88905
C         -4.30828       -1.06383        0.30052
C         -3.28591       -0.21021        0.64409
C         -3.49256        0.78509        1.57145
C         -4.73134        0.93914        2.18167
H         -6.72633        0.19542        2.27902
H         -6.35450       -1.58453        0.62127
H         -4.13059       -1.84149       -0.42403
H         -2.68053        1.44013        1.84136
C         -4.94921        2.02350        3.17743
C          5.00778       -1.26449        2.36092
C          5.10621       -0.00881        1.79456
C          4.07190        0.48166        1.02014
C          2.94900       -0.28546        0.81751
C          2.84737       -1.53491        1.38477
C          3.87986       -2.04801        2.15940
H          5.80864       -1.64479        2.97185
H          5.98555        0.59158        1.96108
H          4.13041        1.46452        0.58223
H          1.95797       -2.12113        1.22813
C          3.74879       -3.38907        2.79107
C          2.23136        4.67896       -1.36781
C          2.99715        3.68225       -1.94042
C          2.80928        2.36542       -1.56304
C          1.86139        2.06107       -0.61456
C          1.10447        3.05170       -0.03396
C          1.27991        4.37999       -0.40227
H          2.36590        5.70344       -1.67047
H          3.73363        3.92832       -2.68769
H          3.38447        1.57133       -2.01296
H          0.36568        2.79400        0.70600
C          0.42785        5.44641        0.18982
Pd        -0.06218        0.08008        1.47751
C          0.78002        1.99135       -4.25706
C         -0.84340       -0.91568       -4.69974
H          1.32509        2.93632       -4.25973
H          1.50940        1.19403       -4.11076
H          0.32965        1.86154       -5.24181
H         -1.56043       -0.17233       -4.34966
H         -0.39388       -0.54320       -5.62104
H         -1.40112       -1.82150       -4.94177
H          0.48802       -4.89937        1.35910
H          0.25752       -6.15343        0.14312
H          1.55525       -4.97103       -0.04461
H         -5.15766        2.97133        2.67919
H         -5.79010        1.79505        3.83370
H         -4.06716        2.15907        3.80508
H          4.72401       -3.79951        3.05655
H          3.14877       -3.33017        3.70022
H          3.26503       -4.09458        2.11391
H          0.11595        5.18295        1.20153
H          0.96437        6.39465        0.24452
H         -0.47056        5.60039       -0.40960
