111
-148.55806414
P         -2.38097        2.35669        0.28361
P         -0.04210        0.18924        0.52941
C         -1.65166        1.98219        1.89842
C         -0.65215        1.03887        1.99827
C         -2.59406        4.17523        0.02762
C         -1.56883        4.70596       -0.95086
C         -2.10285        2.63101        3.02964
H         -2.89134        3.36124        2.94534
C         -1.54559        2.33480        4.26172
H         -1.89672        2.84123        5.14594
C         -0.54190        1.39020        4.35923
H         -0.10772        1.15950        5.31809
C         -0.09451        0.73918        3.22328
H          0.68932        0.00002        3.28124
Pd        -1.10929        1.20824       -1.25254
Cl        -2.51974        1.99117       -2.81313
Cl         0.20987        0.02799       -2.63020
C         -4.05417        4.28550       -0.45046
C         -4.13718        1.79388        0.13920
H         -1.69492        5.77806       -1.11947
H         -0.55098        4.53544       -0.59128
H         -1.66238        4.20669       -1.91698
H         -4.06646        4.26966       -1.54905
H         -4.47939        5.25949       -0.16414
H         -4.20820        1.26945       -0.82301
C         -4.92539        3.11639        0.09143
C         -4.51429        0.87639        1.28294
H         -2.47435        4.64674        1.01152
H         -5.27241        3.35845        1.10534
H         -5.83845        2.99556       -0.51107
H         -3.85009        0.01052        1.33166
H         -4.43714        1.39700        2.23905
H         -5.54073        0.51512        1.18508
C         -1.23112       -4.20684        0.46749
C         -0.07769       -3.80517        1.18916
C          0.27213       -2.46462        1.17695
C         -0.51356       -1.53693        0.54409
C         -1.69135       -1.90456       -0.05344
C         -2.09612       -3.22851       -0.08513
O         -1.49884       -5.58881        0.27627
C          0.79578       -4.80728        1.96101
H          1.17253       -2.12485        1.65879
H         -2.29112       -1.13978       -0.51483
C         -3.43299       -3.58097       -0.75697
C          4.37263        1.01571       -0.21283
C          3.82162       -0.23144       -0.60382
C          2.47581       -0.45712       -0.36720
C          1.71005        0.46492        0.29581
C          2.26120        1.62902        0.76490
C          3.60152        1.91648        0.56560
O          5.67686        1.38349       -0.63795
C          4.64067       -1.31644       -1.31947
H          1.99637       -1.35071       -0.72739
H          1.61983        2.32243        1.28146
C          4.18477        3.20779        1.16008
C          1.53136       -4.10965        3.12746
C         -0.06696       -5.92464        2.57548
C          1.84596       -5.41020        1.01638
C         -4.06737       -4.83105       -0.12069
C         -4.45142       -2.43058       -0.58835
C         -3.19696       -3.80736       -2.25820
C         -0.92952       -6.13303       -0.90794
H          2.04718       -4.83955        3.75100
H          2.28357       -3.40940        2.76680
H          0.82938       -3.56656        3.75976
H         -0.55825       -6.51430        1.80516
H          0.53942       -6.60375        3.17428
H         -0.83964       -5.50354        3.21786
H          2.47051       -4.62851        0.58662
H          2.49445       -6.10668        1.54729
H          1.37812       -5.94812        0.19616
H         -3.44804       -5.71175       -0.26833
H         -4.19714       -4.69106        0.95194
H         -5.04430       -5.03937       -0.55624
H         -4.56345       -2.16562        0.46233
H         -4.15302       -1.54051       -1.14002
H         -5.43131       -2.72399       -0.96423
H         -4.12783       -4.05508       -2.76751
H         -2.78639       -2.91064       -2.72197
H         -2.49291       -4.61807       -2.42943
H         -1.72126       -6.46339       -1.57978
H         -0.31351       -5.38701       -1.41168
H         -0.31930       -6.99929       -0.65257
C          5.70473        2.06134       -1.88799
C          4.11539       -2.72205       -0.94980
C          4.51194       -1.12474       -2.83825
C          6.12132       -1.27066       -0.90046
C          3.44811        3.58707        2.46527
C          5.67129        3.03113        1.51938
C          4.01635        4.35381        0.15110
H          4.07949       -2.84601        0.13217
H          3.11862       -2.90005       -1.35034
H          4.76547       -3.49745       -1.35444
H          5.07065       -1.88894       -3.37783
H          3.46852       -1.18718       -3.14656
H          4.88854       -0.15180       -3.14540
H          6.68364       -2.08345       -1.35946
H          6.59093       -0.33725       -1.19961
H          6.21676       -1.36047        0.18110
H          2.41883        3.88792        2.27552
H          3.43770        2.74919        3.16194
H          3.94023        4.42557        2.95755
H          6.06734        3.92534        2.00002
H          5.80401        2.19210        2.20158
H          6.27328        2.83971        0.63456
H          4.54176        4.14213       -0.77705
H          4.40680        5.28841        0.55301
H          2.96416        4.50318       -0.09028
H          4.69165        2.19763       -2.26864
H          6.18146        3.03378       -1.76544
H          6.28700        1.48435       -2.60613
