105
-153.06013302
Cl         0.26748        3.47309        1.81895
Pd        -0.15840        1.92066        0.24549
P         -0.72810        0.23596       -1.32220
N          0.12686       -1.18368       -1.95342
C          0.22072       -2.50748       -1.53490
C         -0.09640       -2.96935       -0.22819
C          0.23657       -4.29315        0.13446
C          0.15209       -4.71443        1.58368
C         -0.00754       -6.23046        1.76249
C          1.08794       -6.97219        0.99013
C          1.03708       -6.63127       -0.50941
C          0.73748       -5.18268       -0.81946
C          0.96111       -4.72968       -2.11258
C          0.73255       -3.42230       -2.45478
H          0.95625       -3.08231       -3.45122
H          1.34517       -5.41790       -2.84661
H          1.98598       -6.90315       -0.98915
H          2.06834       -6.69096        1.39494
H          0.00253       -6.50655        2.82641
H          1.06850       -4.38212        2.08633
C         -0.69443       -2.08903        0.81084
C          0.12197       -1.09593        1.41187
C         -0.34904       -0.40990        2.53195
C         -1.60388       -0.66440        3.02168
C         -2.43763       -1.60371        2.42147
C         -3.80869       -1.82561        3.00423
C         -4.40212       -3.19267        2.63403
C         -4.30748       -3.42456        1.12317
C         -2.85029       -3.36533        0.63358
C         -1.98822       -2.32227        1.31019
H         -2.38784       -4.34898        0.76800
H         -4.89661       -2.65778        0.60819
H         -5.44209       -3.27737        2.98011
H         -4.47190       -1.02601        2.65358
H         -1.96544       -0.11748        3.87582
H          0.26963        0.34508        2.98145
N          1.28094       -0.72456        0.73589
P          1.82008        0.89544        0.98785
C          2.90559        1.40911       -0.33598
C          3.14320        2.75010       -0.52193
C          3.89852        3.16736       -1.60282
C          4.41709        2.24318       -2.50054
C          4.15404        0.89433       -2.29993
C          3.39851        0.47819       -1.21878
H          3.18014       -0.56665       -1.06875
H          4.53612        0.17259       -3.00151
C          5.19660        2.69405       -3.68637
H          4.07811        4.21667       -1.76296
H          2.70546        3.46180        0.16069
C          2.65209        0.94957        2.57520
C          3.46892       -0.10671        2.90150
C          4.13193       -0.11359        4.11638
C          3.97380        0.93506        5.01281
C          3.14916        1.99527        4.66098
C          2.48876        1.99821        3.44754
H          1.83536        2.80962        3.17712
H          3.02693        2.81806        5.34454
C          4.70584        0.94155        6.30968
H          4.77683       -0.93591        4.37506
H          3.57628       -0.92403        2.20519
H          1.13191       -0.83205       -0.26707
H          0.33638       -0.99417       -2.92576
C         -0.61002        1.39287       -2.69517
C         -1.71301        1.78206       -3.41634
C         -1.57021        2.68066       -4.45736
C         -0.32244        3.19824       -4.77907
C          0.78086        2.78266       -4.04652
C          0.63462        1.88349       -3.00646
H          1.48777        1.57057       -2.42782
H          1.75490        3.17051       -4.29065
C         -0.16544        4.15200       -5.91172
H         -2.43095        2.98969       -5.02546
H         -2.68287        1.39082       -3.15743
C         -2.46162       -0.18548       -1.15202
C         -2.98577       -1.08566       -2.04874
C         -4.33489       -1.39112       -2.01097
C         -5.16520       -0.79860       -1.06929
C         -4.61726        0.11019       -0.17430
C         -3.26983        0.41579       -0.21650
H         -2.85151        1.13641        0.46640
H         -5.25549        0.58591        0.55053
C         -6.62235       -1.10439       -1.04235
H         -4.75071       -2.09107       -2.71532
H         -2.33472       -1.54272       -2.77725
Cl        -1.82727        3.21162       -0.53404
H          0.27628       -7.25052       -0.99964
H         -0.99071       -6.53902        1.38566
H          1.00647       -8.05705        1.14708
H         -0.65744       -4.18221        2.09472
H         -4.77239       -4.38162        0.84773
H         -2.82250       -3.18607       -0.44813
H         -3.76005       -1.71214        4.09476
H         -3.84982       -3.98289        3.15811
H          5.93398        1.94579       -3.98034
H          4.53837        2.87064       -4.53816
H          5.73181        3.62117       -3.47660
H          4.14589        1.48056        7.07517
H          4.87058       -0.07344        6.67401
H          5.67881        1.42299        6.20265
H         -0.00032        3.61768       -6.84830
H         -1.05511        4.77216       -6.02962
H          0.68276        4.81872       -5.75013
H         -7.17318       -0.42009       -1.68897
H         -6.81790       -2.12173       -1.38437
H         -7.02576       -1.01152       -0.03294
