171
-217.84734307
P         -1.60933        0.36468       -0.31850
P          1.63815       -0.49118       -0.26255
C         -0.84556        1.26028       -1.67188
C          0.88437       -1.47413       -1.56721
C         -0.07273        0.59043       -2.61317
C          0.55108        1.33705       -3.63105
C          0.35844        2.70799       -3.67952
C         -0.42485        3.35035       -2.74376
C         -1.02190        2.62049       -1.73439
C          1.05285       -2.83667       -1.51506
C          0.42926       -3.65176       -2.43879
C         -0.37866       -3.09187       -3.40526
C         -0.56501       -1.72136       -3.47479
C          0.09060       -0.88798       -2.54803
Cl         1.56047        0.23353        2.88588
Cl        -1.61384       -0.55053        2.85058
C         -1.45924       -1.16281       -4.52611
C          1.38878        0.67448       -4.66817
H         -0.57255        4.41630       -2.80105
H         -1.63053        3.11165       -0.99189
H          1.67368       -3.26712       -0.74620
H          0.56800       -4.71977       -2.39801
H          0.83117        3.27411       -4.46432
H         -0.88123       -3.72321       -4.11859
C         -4.04548       -3.19589       -1.66043
C         -4.29683       -1.95969       -2.24334
C         -3.51873       -0.88231       -1.83624
C         -2.55051       -1.04921       -0.87703
C         -2.31299       -2.27746       -0.31342
C         -3.04978       -3.38575       -0.71024
H         -4.65796       -4.03336       -1.93876
H         -3.66492        0.09825       -2.25666
H         -1.55441       -2.35970        0.44531
C         -4.25679        3.11534        2.13771
C         -4.84951        2.20202        1.27389
C         -4.01542        1.37188        0.53879
C         -2.65113        1.46597        0.65307
C         -2.08241        2.37593        1.50994
C         -2.87822        3.20580        2.28961
H         -4.87974        3.77571        2.71054
H         -4.43754        0.63756       -0.12404
H         -1.00992        2.42098        1.58045
C          4.60949       -2.86448        2.20748
C          3.26320       -3.20225        2.28173
C          2.36601       -2.47970        1.50496
C          2.80847       -1.46544        0.69259
C          4.14133       -1.14398        0.63481
C          5.07352       -1.83947        1.39146
H          5.30707       -3.40904        2.81553
H          1.31024       -2.68528        1.54696
H          4.45736       -0.32891        0.00750
C          3.72646        3.32065       -1.50747
C          2.77867        3.37347       -0.49247
C          2.12865        2.19500       -0.15301
C          2.41617        1.02483       -0.81008
C          3.35674        0.98686       -1.80974
C          4.03765        2.14221       -2.17579
H          4.25685        4.21458       -1.77635
H          1.40985        2.18288        0.64829
H          3.56567        0.04385       -2.28565
Pd        -0.02650       -0.13328        1.32341
C         -5.42669       -0.41833       -3.92382
C         -5.45911       -1.79639       -3.23339
C         -6.78474       -1.93011       -2.46298
C         -5.38276       -2.88341       -4.32323
H         -4.48282       -0.26307       -4.44551
H         -6.22886       -0.33429       -4.65688
H         -5.55889        0.38795       -3.20308
H         -7.63866       -1.81441       -3.13020
H         -6.86198       -2.90536       -1.98312
H         -6.85707       -1.16931       -1.68588
H         -6.17758       -2.75280       -5.05747
H         -4.43010       -2.83983       -4.84956
H         -5.48743       -3.88193       -3.90143
C         -4.04495       -5.16261        0.74384
C         -2.81901       -4.77499       -0.10102
C         -1.56964       -4.79417        0.80152
C         -2.61542       -5.80570       -1.22765
H         -4.20784       -4.43638        1.54002
H         -4.94725       -5.19801        0.13413
H         -3.91010       -6.14237        1.20170
H         -1.68900       -4.12611        1.65419
H         -1.38961       -5.79544        1.19251
H         -0.68343       -4.49005        0.24511
H         -2.40588       -6.79382       -0.81839
H         -3.50030       -5.88937       -1.85708
H         -1.77838       -5.51984       -1.86360
C         -6.79127        0.63773        1.51961
C         -6.37027        2.06340        1.11592
C         -6.75366        2.31835       -0.35382
C         -7.13029        3.06866        2.00191
H         -7.87024        0.51009        1.43439
H         -6.31625       -0.11028        0.88577
H         -6.50611        0.43034        2.55076
H         -7.83178        2.24355       -0.49475
H         -6.43987        3.31408       -0.66647
H         -6.28088        1.59532       -1.01722
H         -8.20725        2.95783        1.87586
H         -6.90416        2.91124        3.05634
H         -6.87164        4.09482        1.74136
C         -2.42989        5.62911        2.71811
C         -2.27180        4.20768        3.28304
C         -0.77477        3.92719        3.52335
C         -2.99446        4.10154        4.64048
H         -2.00358        6.36894        3.39538
H         -1.92497        5.71966        1.75644
H         -3.48080        5.87505        2.56792
H         -0.61847        2.90297        3.86197
H         -0.19530        4.08206        2.61562
H         -0.37138        4.59555        4.28381
H         -2.94505        3.08188        5.02210
H         -2.53525        4.75978        5.37783
H         -4.04383        4.38131        4.56074
C          3.54117       -5.61894        2.90590
C          2.80153       -4.31002        3.23886
C          1.28629       -4.56598        3.12129
C          3.11402       -3.88557        4.68500
H          3.20982       -6.42950        3.55479
H          3.35316       -5.91464        1.87387
H          4.61762       -5.51147        3.03289
H          0.71490       -3.67551        3.38292
H          1.02085       -4.86409        2.10760
H          0.97462       -5.36530        3.79341
H          2.78115       -4.64224        5.39516
H          4.18335       -3.73683        4.83062
H          2.61054       -2.94956        4.92648
C          7.04148       -1.57070       -0.13942
C          6.55150       -1.43199        1.31419
C          7.43469       -2.31524        2.21573
C          6.69486        0.03268        1.76951
H          6.47934       -0.92217       -0.81023
H          8.09466       -1.30327       -0.22362
H          6.92384       -2.59612       -0.48921
H          7.13788       -2.22928        3.26084
H          7.37032       -3.36287        1.92225
H          8.48043       -2.01622        2.14476
H          6.12868        0.70512        1.12579
H          6.32593        0.15652        2.78744
H          7.73760        0.34872        1.74632
C          0.97794        5.02242        0.07162
C          2.45779        4.65774        0.28456
C          3.32378        5.84252       -0.18418
C          2.72781        4.42055        1.78285
H          0.78522        5.23986       -0.97810
H          0.32282        4.20462        0.36670
H          0.70318        5.90212        0.65330
H          3.15200        6.06151       -1.23790
H          3.08544        6.74267        0.38235
H          4.38398        5.63383       -0.04197
H          2.50712        5.31423        2.36621
H          2.11819        3.60747        2.17413
H          3.77276        4.15877        1.94761
C          5.30751        0.75278       -3.89135
C          5.15610        2.13562       -3.22756
C          6.48795        2.49216       -2.54151
C          4.84289        3.17267       -4.32240
H          6.09339        0.77055       -4.64634
H          5.57463       -0.00800       -3.15831
H          4.38467        0.44822       -4.38304
H          6.71741        1.77698       -1.75162
H          7.31065        2.48187       -3.25624
H          6.44759        3.48382       -2.09219
H          4.79979        4.18160       -3.91430
H          5.60765        3.16204       -5.09884
H          3.88303        2.96214       -4.79224
H         -2.39170       -1.72543       -4.57650
H          1.81011       -0.26169       -4.29915
H         -0.98588       -1.21189       -5.50769
H         -1.71448       -0.12175       -4.32428
H          2.21802        1.31513       -4.96887
H          0.80106        0.45242       -5.55974
