111
-148.55500660
P         -2.53626        2.08892        0.93835
P          0.11934        0.39269        0.53199
C         -1.43576        1.78083        2.34572
C         -0.26905        1.07147        2.15683
C         -3.29675        3.77452        0.99427
C         -2.70465        4.67200       -0.07049
C         -1.76831        2.23551        3.60558
H         -2.69162        2.77186        3.75182
C         -0.92291        1.98576        4.67299
H         -1.18163        2.34038        5.65734
C          0.24934        1.28024        4.47933
H          0.90613        1.08413        5.31079
C          0.57556        0.81789        3.21691
H          1.47973        0.25339        3.04980
Pd        -1.32326        1.47661       -0.91737
Cl        -3.03049        2.08573       -2.23479
Cl         0.08380        0.91119       -2.57971
C         -4.79964        3.48213        0.82158
C         -4.05757        1.03764        0.96250
H         -2.87144        4.25415       -1.06472
H         -3.15571        5.66691       -0.05063
H         -1.62569        4.78507        0.06031
H         -5.05798        3.58486       -0.24139
H         -5.40110        4.24019        1.34590
H         -4.18516        0.66394       -0.06239
C         -5.16671        2.04951        1.30402
C         -3.92200       -0.10988        1.93957
H         -3.09589        4.17625        1.99556
H         -5.31692        2.05593        2.39245
H         -6.12688        1.72412        0.87535
H         -3.73015        0.26018        2.94842
H         -4.83076       -0.71521        1.97435
H         -3.09077       -0.76328        1.66629
C         -1.17087       -3.95654        0.15085
C         -1.12246       -3.35823        1.43680
C         -0.71495       -2.03794        1.53229
C         -0.44057       -1.30346        0.40904
C         -0.59522       -1.84489       -0.83917
C         -0.99409       -3.15829       -1.00781
O         -1.35594       -5.35920        0.02660
C         -1.46854       -4.13088        2.71929
H         -0.59496       -1.56571        2.49119
H         -0.38404       -1.21702       -1.68746
C         -1.19088       -3.69511       -2.43347
C          4.46764        0.78540       -0.75523
C          3.82659       -0.47868       -0.79930
C          2.50451       -0.55454       -0.39748
C          1.84656        0.54202        0.09417
C          2.48945        1.74395        0.23037
C          3.81513        1.88906       -0.14694
O          5.74471        0.95425       -1.35337
C          4.51777       -1.74931       -1.31809
H          1.95979       -1.47805       -0.48346
H          1.93220        2.57592        0.62562
C          4.50925        3.24279        0.07069
C         -2.01757       -3.17621        3.80396
C         -2.56164       -5.18190        2.45344
C         -0.20157       -4.80975        3.26099
C         -1.67392       -2.56768       -3.37545
C          0.14784       -4.23459       -2.96013
C         -2.26274       -4.79913       -2.46994
C         -0.14356       -6.10254        0.01018
H         -2.85625       -2.59562        3.42149
H         -2.36834       -3.73698        4.67004
H         -1.25441       -2.48534        4.15902
H         -2.85355       -5.68553        3.37464
H         -3.44821       -4.71372        2.02699
H         -2.21886       -5.94322        1.75708
H          0.20771       -5.51313        2.53991
H          0.56917       -4.07028        3.47725
H         -0.41356       -5.35557        4.18002
H         -0.90124       -1.81814       -3.53917
H         -1.94195       -2.96802       -4.35280
H         -2.55189       -2.06922       -2.96543
H          0.90105       -3.44715       -2.97411
H          0.52333       -5.03951       -2.33266
H          0.04242       -4.61852       -3.97444
H         -3.20331       -4.43367       -2.05914
H         -2.44560       -5.13430       -3.49056
H         -1.96017       -5.66623       -1.88845
H          0.71245       -5.43811        0.13523
H         -0.15519       -6.83653        0.81582
H         -0.05310       -6.63678       -0.93537
C          5.69607        1.33277       -2.72341
C          3.93334       -3.00768       -0.63472
C          4.28866       -1.86709       -2.83270
C          6.02490       -1.72832       -1.00635
C          6.01521        3.06030        0.33352
C          4.29002        4.12971       -1.16440
C          3.92274        3.96388        1.30579
H          3.95864       -2.90707        0.45001
H          2.90380       -3.19202       -0.93829
H          4.50748       -3.89457       -0.90190
H          4.75153       -2.77047       -3.22901
H          3.22324       -1.90589       -3.05854
H          4.70682       -1.01478       -3.36253
H          6.19359       -1.60633        0.06305
H          6.50328       -2.65520       -1.32184
H          6.52496       -0.90972       -1.51771
H          6.51954        2.62906       -0.52749
H          6.49354        4.01500        0.55081
H          6.17886        2.39772        1.18273
H          3.22632        4.28735       -1.34122
H          4.75917        5.10451       -1.03380
H          4.70847        3.67250       -2.05768
H          3.94621        3.31491        2.18088
H          2.89360        4.27820        1.13891
H          4.49650        4.86066        1.53866
H          6.20783        2.28550       -2.85827
H          6.20712        0.58413       -3.32849
H          4.66110        1.42489       -3.05539
