111
-148.55570646
P         -2.74789        1.82592       -0.29384
P          0.13502        0.61929        0.18823
C         -1.83971        2.24655        1.21808
C         -0.56095        1.76415        1.39625
C         -3.75215        3.25212       -0.91228
C         -3.09795        3.92145       -2.10121
C         -2.41800        3.03859        2.18939
H         -3.42498        3.39788        2.05474
C         -1.70756        3.35184        3.33547
H         -2.15829        3.97021        4.09449
C         -0.42381        2.87111        3.50923
H          0.12777        3.11228        4.40299
C          0.14955        2.07010        2.53826
H          1.14335        1.67117        2.66671
Pd        -1.19154        0.86634       -1.70012
Cl        -2.73879        0.89145       -3.32294
Cl         0.43103       -0.09414       -2.91955
C         -5.11666        2.60207       -1.20669
C         -4.07950        0.56229       -0.05305
H         -3.69372        4.76241       -2.46361
H         -2.10239        4.29402       -1.84862
H         -2.98415        3.21948       -2.92821
H         -5.13645        2.28666       -2.25906
H         -5.92508        3.34200       -1.10407
H         -3.93944       -0.18027       -0.85016
C         -5.37005        1.36872       -0.29291
C         -3.98927       -0.08953        1.30967
H         -3.84013        3.95703       -0.07592
H         -5.76075        1.70658        0.67680
H         -6.15271        0.72099       -0.71624
H         -3.03983       -0.61315        1.43469
H         -4.05801        0.65784        2.10222
H         -4.79476       -0.81169        1.46184
C         -1.21867       -3.57728        1.32199
C         -0.80290       -3.30286       -0.00586
C         -0.39471       -2.01656       -0.30925
C         -0.33448       -1.04572        0.65418
C         -0.62440       -1.33491        1.96140
C         -1.02993       -2.60437        2.33730
O         -1.86369       -4.80577        1.62462
C         -0.83854       -4.35460       -1.12448
H         -0.13346       -1.74155       -1.31608
H         -0.54880       -0.54469        2.68747
C         -1.29350       -2.89236        3.82317
C          4.67103        0.91283       -0.06476
C          3.87373        1.57971       -1.03035
C          2.49555        1.50546       -0.90975
C          1.91422        0.73843        0.06500
C          2.67982        0.00454        0.93329
C          4.06290        0.04145        0.87431
O          6.07248        1.13943       -0.01840
C          4.48038        2.37668       -2.19617
H          1.85225        2.03939       -1.58759
H          2.17560       -0.60639        1.66234
C          4.87648       -0.84406        1.83113
C         -2.20353       -4.29748       -1.82729
C          0.26606       -4.07503       -2.16940
C         -0.58412       -5.76709       -0.56831
C         -1.01312       -4.36773        4.16160
C         -0.35981       -2.04156        4.71431
C         -2.75019       -2.53885        4.15983
C         -3.27869       -4.76180        1.48808
H         -3.01343       -4.50820       -1.13290
H         -2.37797       -3.30778       -2.24910
H         -2.25645       -5.02407       -2.63757
H          1.23881       -3.97714       -1.68824
H          0.32992       -4.88814       -2.89202
H          0.06886       -3.16362       -2.73175
H         -1.36930       -6.07001        0.11984
H         -0.54713       -6.50347       -1.37070
H          0.36294       -5.80274       -0.03092
H         -1.69029       -5.03233        3.63105
H          0.00531       -4.63790        3.88439
H         -1.13580       -4.55549        5.22799
H          0.68136       -2.17256        4.42038
H         -0.60155       -0.98132        4.65653
H         -0.45176       -2.33350        5.76022
H         -2.96728       -2.73660        5.20920
H         -2.94502       -1.48382        3.96891
H         -3.44597       -3.11820        3.55746
H         -3.59856       -5.50315        0.75600
H         -3.74635       -5.00179        2.44280
H         -3.59951       -3.77049        1.16515
C          6.45621        2.23311        0.80531
C          5.82224        1.76899       -2.64407
C          3.54093        2.34314       -3.42372
C          4.67780        3.83825       -1.76738
C          5.16480       -0.06570        3.12356
C          4.08927       -2.12498        2.19245
C          6.19516       -1.29662        1.17828
H          6.21883        2.29212       -3.51384
H          6.56838        1.82971       -1.85575
H          5.69857        0.71889       -2.90668
H          3.27116        1.31819       -3.67708
H          2.62450        2.90374       -3.24629
H          4.02394        2.78745       -4.29363
H          3.72763        4.28660       -1.47808
H          5.35081        3.91193       -0.91648
H          5.09699        4.43038       -2.58048
H          5.73075       -0.67467        3.82808
H          5.73927        0.83504        2.92121
H          4.23577        0.23525        3.60734
H          3.75428       -2.64109        1.29301
H          4.71248       -2.81456        2.76136
H          3.21705       -1.90339        2.80580
H          6.74274       -1.97628        1.83071
H          6.84374       -0.45009        0.96664
H          6.00052       -1.81154        0.23808
H          6.98475        2.97450        0.20638
H          5.57854        2.69237        1.26189
H          7.13120        1.88278        1.58601
