105
-153.07005807
Cl         0.45390        1.99799        3.04327
Pd        -0.37578        1.35370        1.04895
P         -1.19786        0.74709       -1.02474
N         -0.23860       -0.40502       -1.93774
C          0.31525       -1.65293       -1.68479
C          0.24279       -2.32194       -0.43759
C          0.94957       -3.52817       -0.25406
C          0.85688       -4.22163        1.08544
C          1.39653       -5.66060        1.10048
C          2.70706       -5.76637        0.31523
C          2.49869       -5.34081       -1.14593
C          1.70467       -4.06812       -1.29694
C          1.72347       -3.42069       -2.52487
C          1.04488       -2.24527       -2.71556
H          1.09884       -1.74224       -3.66544
H          2.29854       -3.84622       -3.32983
H          3.46717       -5.21550       -1.64704
H          3.46084       -5.11878        0.78018
H          1.53189       -6.01594        2.13177
H          1.39724       -3.61735        1.82350
C         -0.69715       -1.90416        0.62984
C         -0.20109       -1.33394        1.83658
C         -1.08555       -1.17876        2.90974
C         -2.40240       -1.54441        2.79760
C         -2.89896       -2.11931        1.63329
C         -4.34381       -2.56092        1.62134
C         -4.82249       -3.19324        0.30225
C         -3.70764       -3.99288       -0.37786
C         -2.49618       -3.09333       -0.65983
C         -2.03790       -2.32296        0.55337
H         -1.66382       -3.69571       -1.04422
H         -4.07055       -4.46428       -1.30223
H         -5.15925       -2.40477       -0.37991
H         -4.97224       -1.69824        1.87640
H         -3.07030       -1.39961        3.62984
H         -0.72379       -0.72940        3.81777
N          1.11818       -0.87501        1.96066
P          1.71093        0.20278        0.68864
C          2.91563       -0.66557       -0.31988
C          3.24876       -0.22282       -1.57747
C          4.21849       -0.89132       -2.30211
C          4.86539       -1.99759       -1.76702
C          4.54124       -2.40447       -0.48009
C          3.56716       -1.73745        0.24054
H          3.30364       -2.04890        1.23865
H          5.05275       -3.24721       -0.04782
C          5.91372       -2.71180       -2.54638
H          4.47867       -0.55734       -3.29199
H          2.75226        0.63992       -1.98811
C          2.65098        1.58378        1.34914
C          3.48546        1.39653        2.42412
C          4.21678        2.46255        2.91626
C          4.11453        3.71900        2.33371
C          3.28192        3.88031        1.23434
C          2.55232        2.81384        0.74226
H          1.90179        2.93732       -0.10912
H          3.20642        4.84720        0.76687
C          4.91481        4.86277        2.85205
H          4.87181        2.32438        3.75940
H          3.56383        0.41919        2.87265
H          1.33981       -0.41741        2.83594
H         -0.26738       -0.10087       -2.90329
C         -0.98363        2.33198       -1.83815
C         -2.02553        3.22124       -1.94993
C         -1.81283        4.45688       -2.53312
C         -0.55316        4.81323       -2.99663
C          0.48512        3.89882       -2.87931
C          0.26861        2.66295       -2.29745
H          1.07046        1.95056       -2.19775
H          1.46353        4.16053       -3.24456
C         -0.32960        6.13689       -3.64121
H         -2.62569        5.15669       -2.62598
H         -2.99705        2.95089       -1.56917
C         -2.93274        0.32353       -1.18901
C         -3.35870       -0.22255       -2.37675
C         -4.69973       -0.50895       -2.56242
C         -5.62344       -0.24322       -1.56079
C         -5.17759        0.33009       -0.37777
C         -3.83747        0.61340       -0.19582
H         -3.49719        1.09607        0.70416
H         -5.88834        0.56202        0.39692
C         -7.06940       -0.53296       -1.76669
H         -5.03713       -0.93926       -3.48978
H         -2.63958       -0.42208       -3.15520
Cl        -2.11770        2.74684        1.31391
H          1.98544       -6.13963       -1.69440
H          0.65257       -6.33236        0.65407
H          3.11662       -6.78483        0.37314
H         -0.18968       -4.21390        1.41501
H         -3.40176       -4.81921        0.27603
H         -2.73516       -2.38617       -1.45970
H         -4.48753       -3.27602        2.44033
H         -5.70528       -3.82572        0.47159
H          5.68829       -2.69626       -3.61367
H          6.88953       -2.24653       -2.40075
H          5.98926       -3.75619       -2.24020
H          5.88201        4.91793        2.35065
H          4.39728        5.80953        2.69132
H          5.09552        4.76314        3.92323
H         -0.98085        6.89881       -3.21061
H          0.70072        6.47028       -3.50945
H         -0.53280        6.08579       -4.71174
H         -7.56798        0.30862       -2.24944
H         -7.20815       -1.41323       -2.39604
H         -7.57241       -0.72293       -0.81741
