105
-153.06160483
Cl         0.49748        3.60539        1.65421
Pd        -0.15941        1.93718        0.29366
P         -0.72190        0.25908       -1.29589
N          0.11104       -1.15386       -1.97290
C          0.19164       -2.48800       -1.58638
C         -0.13960       -2.97949       -0.29431
C          0.16905       -4.31754        0.03552
C          0.00443       -4.77662        1.46659
C          0.79844       -6.04743        1.80198
C          0.55935       -7.12391        0.73939
C          0.99977       -6.63282       -0.64935
C          0.67425       -5.18587       -0.93461
C          0.92042       -4.70071       -2.21196
C          0.70356       -3.38395       -2.52442
H          0.94159       -3.02062       -3.50922
H          1.31736       -5.37108       -2.95564
H          2.08218       -6.77013       -0.75987
H          1.07536       -8.05674        1.00725
H          1.86830       -5.80728        1.84195
H          0.30110       -3.95995        2.13706
C         -0.71722       -2.11770        0.77181
C          0.11721       -1.14622        1.38436
C         -0.32855       -0.48698        2.53062
C         -1.57426       -0.74745        3.03962
C         -2.42995       -1.66051        2.42998
C         -3.78458       -1.88982        3.05953
C         -4.74355       -2.77579        2.24347
C         -3.99302       -3.90297        1.52676
C         -2.92605       -3.31702        0.59245
C         -2.00339       -2.35016        1.29120
H         -2.34969       -4.11506        0.11081
H         -4.68779       -4.55182        0.97489
H         -5.26320       -2.16127        1.49858
H         -4.24751       -0.91357        3.25205
H         -1.91119       -0.22819        3.92077
H          0.30582        0.24765        2.99159
N          1.27230       -0.76940        0.70423
P          1.80980        0.84831        0.96589
C          2.89936        1.37294       -0.34935
C          3.10960        2.71744       -0.54217
C          3.87037        3.14462       -1.61495
C          4.42088        2.22571       -2.49914
C          4.18457        0.87279       -2.29257
C          3.42385        0.44697       -1.21876
H          3.22480       -0.60117       -1.06417
H          4.59207        0.15535       -2.98420
C          5.20674        2.68225       -3.67859
H          4.02744        4.19673       -1.78020
H          2.63917        3.42257        0.12531
C          2.63125        0.89412        2.55902
C          2.52412        1.97512        3.39989
C          3.16941        1.96527        4.62140
C          3.92246        0.86627        5.01259
C          4.02546       -0.21478        4.14710
C          3.37745       -0.20092        2.92426
H          3.44006       -1.04282        2.25234
H          4.61507       -1.06785        4.43636
C          4.63874        0.86363        6.31825
H          3.09148        2.81309        5.28041
H          1.92823        2.81880        3.09708
H          1.11548       -0.85745       -0.29894
H          0.32899       -0.94021       -2.93833
C         -0.60499        1.44528       -2.64480
C         -1.71331        1.89541       -3.32106
C         -1.56728        2.81473       -4.34333
C         -0.30941        3.28257       -4.69993
C          0.79678        2.81984       -4.00087
C          0.64710        1.90032       -2.97922
H          1.50346        1.54652       -2.42971
H          1.77562        3.18907       -4.25452
C         -0.15456        4.29753       -5.77833
H         -2.43348        3.18104       -4.86738
H         -2.68989        1.53893       -3.03840
C         -2.45658       -0.15940       -1.12828
C         -3.00453       -0.97970       -2.08553
C         -4.35200       -1.29148       -2.03709
C         -5.15616       -0.78627       -1.02504
C         -4.58404        0.04221       -0.06850
C         -3.23872        0.35533       -0.12184
H         -2.79907        1.00546        0.61643
H         -5.19884        0.44495        0.71811
C         -6.60330       -1.13365       -0.97455
H         -4.78644       -1.93434       -2.78344
H         -2.37271       -1.37408       -2.86586
Cl        -1.89620        3.17335       -0.41566
H          0.54591       -7.25431       -1.43188
H          0.54094       -6.42040        2.80344
H         -0.50849       -7.37576        0.71547
H         -1.05745       -4.95084        1.66958
H         -3.51077       -4.54902        2.27080
H         -3.41699       -2.78876       -0.23089
H         -3.62869       -2.33679        4.04874
H         -5.53604       -3.18569        2.88528
H          6.02766        1.99630       -3.89229
H          4.57521        2.73864       -4.56632
H          5.63684        3.67025       -3.50867
H          5.64037        1.28219        6.21122
H          4.10394        1.45611        7.06190
H          4.73725       -0.14920        6.71139
H         -0.22826        5.30719       -5.37211
H          0.81364        4.20312       -6.27209
H         -0.92704        4.18369       -6.54013
H         -6.74163       -2.21469       -0.92412
H         -7.08858       -0.69471       -0.10177
H         -7.12093       -0.76867       -1.86270
