72
-108.39741880
Cl        -1.97185        0.05833        2.80448
Cl         0.90017       -1.32248        2.69085
P          1.21155       -0.97567       -0.31386
P         -2.20240        0.18388       -0.37444
C         -3.37068       -1.31051       -0.32809
C         -4.11355       -1.33709        1.00446
C         -4.38247       -1.25433       -1.48261
C         -3.13591        1.82528       -0.08450
C         -4.49765        1.78799       -0.77003
C         -1.41397        0.41321       -2.07017
C         -1.31066       -0.81935       -2.95216
C          1.15918        0.35669       -1.54959
C         -0.04492        1.07116       -1.97948
C          0.39750        2.20362       -2.79662
C          1.84620        2.17723       -2.86498
C          2.31492        1.02384       -2.12009
C         -2.52046       -2.57402       -0.43061
H         -3.41761       -1.38180        1.84114
H         -4.74651       -0.46117        1.13225
H         -5.26479       -0.67323       -1.21802
H         -4.73606       -2.25491       -1.73709
C         -3.31621        2.08806        1.40515
H         -4.96314        2.77477       -0.74972
H         -5.17954        1.10671       -0.26485
H         -2.09635        1.11490       -2.56316
H         -2.25812       -1.33378       -3.09749
H         -0.60172       -1.52752       -2.53258
H         -0.93149       -0.55590       -3.94152
H         -0.25608        2.88301       -3.34717
H          2.47385        2.87409       -3.42508
Pd        -0.51372       -0.43000        1.18007
H          3.35338        0.73054       -1.95207
C         -2.31491        2.95977       -0.69489
H         -4.40585        1.48945       -1.81456
H         -2.35350        2.17464        1.90663
H         -3.86011        3.01893        1.57297
H         -3.87395        1.28874        1.88993
H         -2.35170        2.94909       -1.78393
H         -2.69123        3.93199       -0.37180
H         -1.27506        2.88500       -0.39327
H         -4.75786       -2.21556        1.06683
H         -3.95990       -0.80922       -2.38074
H         -3.14799       -3.46614       -0.39190
H         -1.95644       -2.61522       -1.35907
H         -1.81611       -2.63949        0.39832
C          2.91028       -1.05652        0.31316
C          3.42058       -2.11429        1.02360
C          4.74584       -1.80352        1.32782
C          4.99195       -0.56629        0.78579
O          3.87423       -0.09697        0.15841
H          2.88821       -3.01031        1.29770
H          5.43975       -2.41474        1.88144
H          5.92972       -0.02720        0.83963
C          0.80584       -2.61758       -0.93348
C          0.54793       -3.65585       -0.07384
C          0.27390       -4.77768       -0.85736
C          0.37806       -4.37476       -2.16652
O          0.70221       -3.04917       -2.22797
H          0.55060       -3.59376        1.00308
H          0.02907       -5.76589       -0.50384
H          0.22717       -5.00323       -3.03548
Fe         1.22823        2.25805       -0.92099
C          2.86744        2.68021        0.21046
C          1.88288        1.96869        1.00077
C          0.66028        2.74278        0.98420
C          0.88896        3.93156        0.18089
C          2.26423        3.90504       -0.28281
H          3.89885        2.35829        0.04916
H          2.03774        1.02968        1.53672
H         -0.23947        2.50229        1.55251
H          0.17669        4.74373        0.01640
H          2.75696        4.66890       -0.88872
