111
-148.55108978
P         -2.63414        2.01339        0.41779
P          0.09577        0.42177        0.45194
C         -1.77892        1.72726        1.99272
C         -0.55706        1.08994        1.99187
C         -3.50941        3.64559        0.41855
C         -2.73297        4.71697       -0.31521
C         -2.33599        2.13944        3.18674
H         -3.30141        2.61770        3.18895
C         -1.66020        1.92002        4.37489
H         -2.09501        2.24183        5.30710
C         -0.43177        1.28741        4.36875
H          0.09218        1.11382        5.29425
C          0.11969        0.86554        3.17241
H          1.06728        0.35010        3.14962
Pd        -1.11768        1.44534       -1.23565
Cl        -2.32699        2.62634       -2.70257
Cl         0.48261        0.76440       -2.66171
C         -4.87508        3.29045       -0.19597
C         -4.06379        0.87694        0.10713
H         -2.59322        4.44984       -1.36255
H         -3.25501        5.67621       -0.28953
H         -1.74170        4.85758        0.12194
H         -4.81493        3.41734       -1.28580
H         -5.64590        3.99920        0.14346
H         -3.91688        0.47436       -0.90413
C         -5.27880        1.82459        0.13457
C         -4.11203       -0.23955        1.12757
H         -3.63561        3.92586        1.47185
H         -5.73246        1.78809        1.13447
H         -6.05848        1.46769       -0.55523
H         -3.20842       -0.85099        1.08711
H         -4.18968        0.16331        2.13912
H         -4.97038       -0.89512        0.96319
C         -1.36205       -3.87072       -0.00720
C         -0.81899       -3.18279       -1.12209
C         -0.40088       -1.87652       -0.94258
C         -0.43874       -1.28145        0.28967
C         -0.85636       -1.97950        1.39197
C         -1.29095       -3.28972        1.28500
O         -2.01238       -5.11986       -0.19063
C         -0.71423       -3.81125       -2.51979
H         -0.05152       -1.28871       -1.77275
H         -0.85290       -1.47828        2.34357
C         -1.70768       -4.04380        2.55726
C          4.62663        0.71471        0.13135
C          4.00940       -0.54597        0.33345
C          2.63127       -0.58669        0.46097
C          1.87358        0.54682        0.32196
C          2.45503        1.75017        0.02158
C          3.82892        1.86049       -0.12096
O          6.03954        0.83532        0.21277
C          4.80716       -1.85639        0.42345
H          2.12518       -1.51374        0.66803
H          1.81473        2.60600       -0.10738
C          4.43302        3.21020       -0.53915
C         -1.99582       -3.50500       -3.30952
C          0.49186       -3.22572       -3.28981
C         -0.49373       -5.33200       -2.43070
C         -0.89879       -3.54372        3.77602
C         -3.20042       -3.80103        2.82745
C         -1.43043       -5.55219        2.42378
C         -3.40470       -5.01099       -0.45933
H         -1.94740       -3.92859       -4.31229
H         -2.87222       -3.91484       -2.81302
H         -2.14151       -2.42909       -3.40412
H          0.34144       -2.17658       -3.53952
H          1.40509       -3.31031       -2.70155
H          0.64728       -3.75779       -4.22798
H          0.39038       -5.55694       -1.83506
H         -1.34247       -5.82974       -1.96845
H         -0.35583       -5.76663       -3.42043
H         -1.16087       -2.52083        4.04254
H         -1.09624       -4.16209        4.65137
H          0.17123       -3.58249        3.57321
H         -3.39889       -2.73894        2.96889
H         -3.81264       -4.14445        1.99699
H         -3.52497       -4.32649        3.72521
H         -0.38172       -5.73002        2.18797
H         -1.66386       -6.07713        3.34976
H         -2.02986       -5.99743        1.63368
H         -3.96730       -5.55060        0.30236
H         -3.71085       -3.96402       -0.46421
H         -3.62675       -5.45865       -1.42787
C          6.52257        1.11592        1.52035
C          3.96150       -3.04481       -0.09014
C          6.07202       -1.79552       -0.45206
C          5.18851       -2.12106        1.88757
C          3.43969        4.00017       -1.42180
C          4.74491        4.04014        0.71502
C          5.71108        3.00940       -1.37387
H          4.56397       -3.95083       -0.15101
H          3.12463       -3.26217        0.57196
H          3.56721       -2.83779       -1.08465
H          6.60221       -2.74749       -0.44203
H          5.81272       -1.56213       -1.48419
H          6.76118       -1.03157       -0.10076
H          5.80164       -1.31647        2.28658
H          4.29723       -2.19848        2.50989
H          5.74898       -3.05070        1.98311
H          2.56989        4.32910       -0.85524
H          3.91095        4.89345       -1.83103
H          3.09475        3.39081       -2.25682
H          5.16463        5.00947        0.44731
H          3.84030        4.21288        1.29759
H          5.45944        3.53043        1.35695
H          6.49425        2.53068       -0.79120
H          6.10110        3.96270       -1.72959
H          5.50782        2.38103       -2.24036
H          5.69301        1.19327        2.22429
H          7.19721        0.32161        1.83925
H          7.07993        2.05244        1.51064
