111
-148.55544346
P         -2.52781        2.09593        1.06847
P          0.09836        0.40733        0.53543
C         -1.44790        1.64509        2.45495
C         -0.28063        0.95466        2.20941
C         -3.27761        3.77177        1.30511
C         -2.60755        4.81322        0.43578
C         -1.78834        1.97972        3.75013
H         -2.71202        2.50076        3.94125
C         -0.95063        1.62925        4.79506
H         -1.21587        1.89036        5.80655
C          0.22267        0.94376        4.54431
H          0.87327        0.66918        5.35825
C          0.55677        0.60101        3.24642
H          1.45951        0.04994        3.03321
Pd        -1.32328        1.59810       -0.83865
Cl        -2.90049        2.68170       -2.01033
Cl        -0.06617        1.06539       -2.62308
C         -4.76485        3.52471        0.99206
C         -4.05881        1.06300        0.95023
H         -3.05123        5.80076        0.58211
H         -1.53941        4.88461        0.65434
H         -2.70871        4.56155       -0.62047
H         -4.93932        3.73071       -0.07304
H         -5.39710        4.24025        1.53959
H         -4.14085        0.76123       -0.10262
C         -5.17794        2.05861        1.30949
C         -3.97495       -0.14964        1.85174
H         -3.15062        4.02109        2.36619
H         -5.40335        1.96574        2.38078
H         -6.10967        1.79169        0.78800
H         -3.82820        0.14956        2.89122
H         -4.88767       -0.74805        1.80333
H         -3.13543       -0.79044        1.57358
C         -1.16766       -3.92062       -0.09037
C         -1.12880       -3.39078        1.22524
C         -0.73678       -2.07308        1.39058
C         -0.46672       -1.27690        0.30904
C         -0.60850       -1.75381       -0.96645
C         -0.99674       -3.06002       -1.20463
O         -1.33441       -5.31683       -0.29006
C         -1.46194       -4.23247        2.46671
H         -0.62122       -1.65299        2.37386
H         -0.39797       -1.08111       -1.77954
C         -1.18913       -3.52488       -2.65600
C          4.47164        0.64154       -0.69332
C          3.92085       -0.59017       -0.25618
C          2.58602       -0.61523        0.11013
C          1.83219        0.52920        0.12103
C          2.38684        1.74067       -0.19601
C          3.71664        1.83708       -0.57350
O          5.76114        0.67117       -1.28792
C          4.72452       -1.89941       -0.22007
H          2.10579       -1.54238        0.37184
H          1.75547        2.61207       -0.16711
C          4.30184        3.22072       -0.89621
C         -2.04005       -3.34342        3.59150
C         -2.52710       -5.29667        2.14600
C         -0.17991       -4.90377        2.98220
C         -2.25716       -4.62943       -2.74914
C         -1.67466       -2.35354       -3.54112
C          0.15171       -4.03352       -3.20701
C         -0.11225       -6.04270       -0.33776
H         -2.38426       -3.95274        4.42687
H         -1.29549       -2.65343        3.98560
H         -2.88867       -2.76364        3.23008
H         -2.81063       -5.84973        3.04110
H         -3.42308       -4.83119        1.73659
H         -2.16246       -6.01610        1.41707
H         -0.38198       -5.50113        3.87089
H          0.25266       -5.55786        2.22890
H          0.56931       -4.15578        3.24090
H         -3.19924       -4.28869       -2.32090
H         -2.43836       -4.91311       -3.78555
H         -1.95147       -5.52379       -2.21214
H         -1.93803       -2.70511       -4.53831
H         -2.55616       -1.88057       -3.10913
H         -0.90492       -1.59329       -3.66414
H          0.05002       -4.36038       -4.24150
H          0.90470       -3.24635       -3.17392
H          0.52488       -4.87243       -2.62433
H         -0.02384       -6.54838       -1.29913
H          0.73581       -5.37029       -0.20137
H         -0.10570       -6.79938        0.44660
C          5.75242        0.47611       -2.69675
C          6.21081       -1.63201        0.07798
C          4.20128       -2.82937        0.89911
C          4.57338       -2.62396       -1.56654
C          3.60800        4.31655       -0.05548
C          5.80297        3.28279       -0.56029
C          4.07717        3.52994       -2.38428
H          6.32169       -1.08229        1.01205
H          6.76714       -2.56496        0.16517
H          6.67501       -1.04523       -0.71054
H          4.17147       -2.30676        1.85486
H          3.20173       -3.20273        0.68068
H          4.84826       -3.69886        1.01322
H          3.52571       -2.84665       -1.76821
H          4.94502       -2.01440       -2.38665
H          5.12475       -3.56386       -1.56847
H          4.10520        5.27739       -0.18673
H          2.56835        4.45290       -0.34931
H          3.63602        4.06735        1.00496
H          6.37648        2.59317       -1.17442
H          6.20128        4.28295       -0.72918
H          5.97357        3.02139        0.48351
H          4.46659        4.51442       -2.64218
H          3.01432        3.51280       -2.62449
H          4.57006        2.79694       -3.01818
H          6.20667        1.33647       -3.18794
H          6.33873       -0.40750       -2.94819
H          4.73045        0.34925       -3.05636
