75
-122.81338692
P          1.91089       -0.52455       -0.16038
C          3.36411       -1.21106       -0.98529
C          4.33969       -1.77323       -0.19209
C          5.47407       -2.31585       -0.76869
C          5.62686       -2.29068       -2.14036
C          4.65189       -1.71968       -2.93311
C          3.52291       -1.17669       -2.35090
H          2.77397       -0.69998       -2.95769
H          4.77347       -1.69013       -4.00351
H          6.50949       -2.71328       -2.59213
H          6.23552       -2.75803       -0.14746
H          4.20768       -1.78837        0.87824
C          1.63720       -1.57147        1.27301
C          1.89145       -1.09962        2.54042
C          1.79871       -1.95493        3.62284
C          1.45751       -3.27843        3.42566
C          1.20453       -3.74735        2.15169
C          1.29886       -2.88980        1.07018
H          1.12694       -3.24495        0.06601
H          0.93546       -4.77948        1.99873
H          1.38128       -3.94534        4.26885
H          1.99147       -1.58804        4.61750
H          2.16462       -0.06583        2.67607
C          2.26040        1.16696        0.33078
C          3.41107        1.82665       -0.03144
C          3.58057        3.16886        0.27981
C          2.54609        3.83977        0.93139
C          1.38329        3.19184        1.28603
C          1.24067        1.82449        1.00150
O          0.07369        1.12322        1.34514
C         -1.13840        1.78237        1.08520
C         -1.29924        3.14971        1.35990
C         -2.49558        3.76290        1.06128
C         -3.54808        3.05361        0.48422
C         -3.36853        1.70698        0.20102
C         -2.18504        1.07790        0.50914
P         -1.80575       -0.63729        0.09912
C         -1.74548       -1.59165        1.62633
C         -1.41944       -0.98458        2.81728
C         -1.46841       -1.70418        3.99647
C         -1.83772       -3.03429        3.97434
C         -2.15453       -3.64461        2.77697
C         -2.11065       -2.91862        1.60032
H         -2.37311       -3.37792        0.66062
H         -2.43997       -4.68352        2.75848
H         -1.87167       -3.59869        4.89187
H         -1.20974       -1.22920        4.92848
H         -1.10961        0.04673        2.81579
C         -3.12140       -1.36197       -0.89669
C         -4.39894       -1.37781       -0.38418
C         -5.42713       -1.94786       -1.11288
C         -5.16598       -2.50803       -2.34728
C         -3.88017       -2.50564       -2.84995
C         -2.85455       -1.93534       -2.11874
H         -1.84669       -1.93382       -2.50064
H         -3.67495       -2.94639       -3.81168
H         -5.96605       -2.95129       -2.91744
H         -6.42876       -1.95690       -0.71547
H         -4.58399       -0.95782        0.59221
Pd        -0.05976       -0.05237       -1.41168
Cl        -1.74434        0.93154       -2.55890
Cl         1.37549        0.90316       -2.86177
H         -4.15077        1.15870       -0.29243
C         -4.81662        3.73887        0.12021
H         -5.00612        4.59108        0.77407
H         -5.66700        3.06088        0.20411
H         -4.77680        4.10368       -0.90689
H         -2.61086        4.81224        1.26809
S          0.04976        4.04857        2.08125
H          2.64760        4.88785        1.15139
C          4.81101        3.89220       -0.13706
H          4.17345        1.30065       -0.57964
H          5.67646        3.22827       -0.13506
H          4.69867        4.29608       -1.14398
H          5.02777        4.72184        0.53704
