171
-217.84164754
P         -1.48934        0.25472       -0.34392
P          1.66337       -0.60786       -0.15049
C         -0.76222        0.99263       -1.81402
C          0.97956       -1.70145       -1.41873
C         -0.00935        0.21893       -2.68728
C          0.58477        0.83725       -3.80538
C          0.37332        2.18885       -4.02312
C         -0.38704        2.93797       -3.15107
C         -0.95013        2.33345       -2.04490
C          1.19800       -3.04946       -1.25629
C          0.60268       -3.96586       -2.10004
C         -0.24368       -3.52516       -3.09358
C         -0.48422       -2.17444       -3.27664
C          0.16576       -1.23780       -2.44925
Cl         1.35150       -0.40141        3.11522
Cl        -1.82270       -1.01023        2.68095
C         -1.44071       -1.74938       -4.33564
C          1.41939        0.05843       -4.76155
H         -0.53852        3.99006       -3.32936
H         -1.54370        2.91268       -1.35818
H          1.84083       -3.39358       -0.46375
H          0.78521       -5.02014       -1.96952
H          0.81017        2.65425       -4.89024
H         -0.73270       -4.23453       -3.73990
C         -4.14324       -3.24653       -1.46533
C         -3.08672       -3.45023       -0.58714
C         -2.30012       -2.35582       -0.25533
C         -2.56245       -1.11568       -0.78288
C         -3.60031       -0.93779       -1.66400
C         -4.41621       -2.00310       -2.02424
H         -4.77162       -4.08233       -1.70865
H         -1.46963       -2.46838        0.41821
H         -3.77173        0.03711       -2.08266
C         -3.80276        3.58581        1.74395
C         -4.17399        3.18674        0.46741
C         -3.46844        2.14281       -0.11812
C         -2.41768        1.54373        0.53507
C         -2.05854        1.97230        1.79169
C         -2.75427        2.98925        2.42941
H         -4.34370        4.38504        2.21644
H         -3.71566        1.81457       -1.11095
H         -1.22724        1.51098        2.28931
C          5.00382       -2.67163        2.12203
C          3.70280       -3.13940        2.26468
C          2.70097       -2.49213        1.55569
C          2.99221       -1.42680        0.74103
C          4.28230       -0.97467        0.61512
C          5.31808       -1.59127        1.30596
H          5.79717       -3.14985        2.66504
H          1.67472       -2.80111        1.66799
H          4.47256       -0.12692       -0.01798
C          2.99511        3.55262       -1.33590
C          2.05924        3.41663       -0.31727
C          1.64903        2.13299        0.01446
C          2.15374        1.04243       -0.65295
C          3.07994        1.19375       -1.65490
C          3.52719        2.46048       -2.01111
H          3.33439        4.53397       -1.60897
H          0.93455        1.98431        0.80517
H          3.45307        0.31324       -2.14977
Pd        -0.07568       -0.45399        1.38766
C         -2.64187       -5.86382       -1.11952
C         -2.83509       -4.84026        0.01421
C         -4.04538       -5.24080        0.87641
C         -1.57479       -4.85545        0.90373
H         -1.80537       -5.57895       -1.75627
H         -2.43687       -6.85606       -0.71800
H         -3.52980       -5.93583       -1.74627
H         -3.89326       -6.21857        1.33310
H         -4.20435       -4.51573        1.67441
H         -4.95630       -5.28752        0.28066
H         -1.39755       -5.85200        1.30769
H         -0.69055       -4.56770        0.33617
H         -1.68017       -4.17342        1.74721
C         -6.21305       -3.08793       -3.46224
C         -5.62941       -1.76214       -2.93548
C         -5.22733       -0.90276       -4.15080
C         -6.71106       -1.02733       -2.12475
H         -6.61596       -3.69392       -2.65129
H         -7.02709       -2.90091       -4.16253
H         -5.45186       -3.66864       -3.98322
H         -6.07653       -0.75536       -4.81795
H         -4.87560        0.08288       -3.84978
H         -4.43550       -1.38539       -4.72190
H         -6.33673       -0.07557       -1.74961
H         -7.59133       -0.82752       -2.73544
H         -7.02144       -1.62358       -1.26691
C         -6.62435        3.70681        0.54207
C         -5.32277        3.90399       -0.25548
C         -5.53219        3.35292       -1.67992
C         -4.99716        5.40567       -0.36146
H         -7.46378        4.19389        0.04618
H         -6.85820        2.64677        0.63968
H         -6.54058        4.12439        1.54479
H         -5.79239        2.29536       -1.65726
H         -6.34273        3.87974       -2.18330
H         -4.63343        3.47553       -2.28428
H         -5.78369        5.93858       -0.89550
H         -4.89662        5.86113        0.62293
H         -4.06089        5.55874       -0.89815
C         -1.94509        4.92415        3.80485
C         -2.39636        3.45373        3.84868
C         -1.25803        2.60785        4.45484
C         -3.63375        3.31533        4.75508
H         -2.73078        5.56727        3.40994
H         -1.68751        5.28306        4.80114
H         -1.06787        5.03834        3.16940
H         -1.53388        1.55442        4.50031
H         -0.34359        2.69904        3.87004
H         -1.03147        2.93411        5.46961
H         -3.40253        3.61004        5.77853
H         -4.45423        3.94119        4.40644
H         -3.98306        2.28312        4.77166
C          2.60535       -5.39309        2.37647
C          3.32574       -4.30255        3.19224
C          2.38788       -3.77821        4.29587
C          4.56696       -4.92803        3.85618
H          2.34906       -6.24531        3.00557
H          1.68234       -5.01639        1.93731
H          3.24028       -5.75014        1.56586
H          2.87272       -2.98813        4.86869
H          1.47195       -3.36615        3.87374
H          2.10973       -4.57539        4.98481
H          4.28292       -5.76093        4.49930
H          5.26091       -5.30991        3.10757
H          5.09068       -4.19923        4.47443
C          7.65637       -2.24633        0.67543
C          6.77031       -1.10312        1.20320
C          7.25793       -0.66697        2.59692
C          6.90031        0.09682        0.24365
H          7.30946       -2.58187       -0.30175
H          8.69174       -1.92175        0.57298
H          7.64118       -3.10297        1.34818
H          7.23523       -1.49686        3.30221
H          8.28107       -0.29399        2.55356
H          6.62530        0.12667        2.99402
H          6.30140        0.94065        0.58592
H          7.93546        0.43203        0.18062
H          6.57887       -0.17039       -0.76263
C          2.12184        5.94387       -0.00804
C          1.50633        4.61480        0.46954
C          1.83731        4.43210        1.96258
C         -0.01931        4.69327        0.28544
H          3.20437        5.94269        0.11812
H          1.89485        6.12596       -1.05836
H          1.72402        6.78154        0.56476
H          2.91404        4.35326        2.11086
H          1.47630        5.27631        2.54956
H          1.37944        3.52807        2.36130
H         -0.43678        5.53950        0.83031
H         -0.27293        4.81654       -0.76667
H         -0.50643        3.79000        0.64850
C          5.80987        3.39892       -2.44993
C          4.60494        2.67761       -3.08293
C          4.02708        3.53465       -4.22312
C          5.09892        1.34253       -3.67351
H          5.52936        4.37878       -2.06558
H          6.21402        2.81760       -1.62133
H          6.60570        3.54352       -3.18038
H          4.77277        3.70511       -4.99944
H          3.17228        3.03917       -4.68111
H          3.69513        4.50645       -3.85967
H          5.53274        0.70865       -2.90072
H          4.28538        0.79693       -4.14921
H          5.86602        1.51386       -4.42857
H         -1.00278       -1.86299       -5.32814
H          0.80858       -0.35680       -5.56382
H         -1.73887       -0.70741       -4.21190
H         -2.34581       -2.35735       -4.29870
H          1.92728       -0.76700       -4.26036
H          2.18327        0.68760       -5.22012
