171
-217.83424358
P         -1.45638        0.23482       -0.38633
P          1.67513       -0.72185        0.37721
C         -0.43052        1.03567       -1.63841
C          1.03371       -1.73357       -0.97906
C          0.43728        0.24307       -2.37899
C          1.27078        0.84587       -3.34019
C          1.17186        2.21125       -3.55287
C          0.29503        2.98205       -2.81850
C         -0.49984        2.39034       -1.85664
C          1.04162       -3.08675       -0.73418
C          0.50250       -3.96507       -1.65409
C         -0.06361       -3.47477       -2.81111
C         -0.09429       -2.11526       -3.07175
C          0.47624       -1.22238       -2.14525
Cl         0.66676       -1.09220        3.40851
Cl        -2.33497       -1.51661        2.35481
C         -0.75564       -1.63558       -4.31640
C          2.23805        0.03009       -4.12565
H          0.23636        4.04443       -2.98993
H         -1.16180        2.99386       -1.26090
H          1.46217       -3.45294        0.19090
H          0.51401       -5.02533       -1.46111
H          1.79271        2.67183       -4.30237
H         -0.50197       -4.15188       -3.52489
C         -4.36482       -2.50998       -2.51782
C         -3.76568       -2.96196       -1.34790
C         -2.88336       -2.10985       -0.70016
C         -2.60040       -0.87078       -1.21426
C         -3.19037       -0.44431       -2.37885
C         -4.09208       -1.25784       -3.05541
H         -5.07690       -3.13789       -3.01885
H         -2.43460       -2.40506        0.23096
H         -2.93078        0.52676       -2.76314
C         -4.11631        3.33083        1.65008
C         -3.38614        2.46580        2.45568
C         -2.55881        1.54194        1.83339
C         -2.47728        1.46645        0.46294
C         -3.23937        2.30647       -0.31205
C         -4.05672        3.27026        0.26325
H         -4.75610        4.05749        2.11229
H         -2.00154        0.85232        2.43893
H         -3.20385        2.20942       -1.38350
C          5.60149       -2.60260        1.63564
C          4.70393       -2.23966        2.63198
C          3.49416       -1.68224        2.24157
C          3.20039       -1.50877        0.91344
C          4.09576       -1.88252       -0.05925
C          5.32438       -2.43246        0.28514
H          6.54448       -3.03228        1.91998
H          2.75973       -1.39015        2.96845
H          3.82360       -1.74288       -1.09186
C          2.85071        3.61872       -0.22118
C          3.62659        2.61208       -0.78110
C          3.20532        1.30139       -0.60639
C          2.06695        1.01518        0.10630
C          1.32060        2.02414        0.67069
C          1.69459        3.35290        0.50241
H          3.16013        4.64092       -0.33074
H          3.78986        0.49199       -1.00780
H          0.44303        1.77003        1.23698
Pd        -0.40060       -0.82316        1.45293
C         -4.67597       -4.15140        0.66047
C         -4.05676       -4.33944       -0.73707
C         -2.73937       -5.12815       -0.61734
C         -5.03597       -5.15320       -1.60414
H         -4.90997       -5.11302        1.11663
H         -3.99535       -3.62317        1.32715
H         -5.59738       -3.57292        0.59834
H         -2.27720       -5.25386       -1.59609
H         -2.02637       -4.61356        0.02581
H         -2.91343       -6.11807       -0.19624
H         -5.99681       -4.64652       -1.69225
H         -4.63430       -5.31133       -2.60492
H         -5.21990       -6.13297       -1.16345
C         -4.74139       -1.84559       -5.42217
C         -4.83090       -0.77848       -4.31388
C         -4.22880        0.53186       -4.85991
C         -6.30664       -0.53115       -3.95454
H         -5.24040       -1.50456       -6.32915
H         -3.70326       -2.05952       -5.67309
H         -5.21366       -2.77905       -5.11972
H         -4.73335        0.83653       -5.77670
H         -4.33642        1.34562       -4.14344
H         -3.17016        0.41089       -5.08836
H         -6.39092        0.21941       -3.16874
H         -6.86679       -0.17899       -4.82057
H         -6.78045       -1.44444       -3.59578
C         -4.08608        1.07927        4.41720
C         -3.51512        2.44379        3.98679
C         -4.45560        3.55260        4.49607
C         -2.13217        2.64647        4.63301
H         -4.21334        1.03184        5.49842
H         -5.05675        0.90479        3.95376
H         -3.42559        0.26439        4.12309
H         -4.08953        4.53856        4.21005
H         -5.46243        3.42751        4.09814
H         -4.52696        3.52940        5.58343
H         -2.20299        2.61075        5.71991
H         -1.42964        1.87404        4.32249
H         -1.71634        3.61504        4.35836
C         -3.88538        4.97496       -1.56589
C         -4.85831        4.20960       -0.64842
C         -5.67251        5.23567        0.16254
C         -5.83088        3.37604       -1.50346
H         -3.16364        5.53963       -0.97575
H         -3.33037        4.29536       -2.21155
H         -4.42176        5.67588       -2.20520
H         -5.02058        5.85206        0.78138
H         -6.22472        5.90166       -0.50045
H         -6.39707        4.74011        0.80842
H         -6.51373        2.81108       -0.86924
H         -6.42544        4.01606       -2.15509
H         -5.29566        2.66565       -2.13215
C          6.33987       -1.66382        4.44340
C          5.06546       -2.45998        4.10774
C          5.30925       -3.96046        4.35226
C          3.93554       -1.99057        5.04557
H          7.18474       -1.99563        3.84106
H          6.19037       -0.60111        4.25342
H          6.61049       -1.78474        5.49219
H          5.54872       -4.15153        5.39817
H          4.42226       -4.54022        4.09749
H          6.13624       -4.33132        3.74790
H          3.01329       -2.53872        4.85429
H          4.20542       -2.15333        6.08883
H          3.73656       -0.92669        4.91859
C          7.66710       -2.05734       -0.52907
C          6.36156       -2.83744       -0.77147
C          5.86879       -2.52641       -2.19899
C          6.63053       -4.34926       -0.66450
H          8.08770       -2.28180        0.45036
H          8.41684       -2.30926       -1.27891
H          7.48857       -0.98342       -0.57839
H          5.67260       -1.46141       -2.32281
H          6.61796       -2.81148       -2.93748
H          4.95555       -3.07545       -2.42792
H          7.35232       -4.67140       -1.41488
H          7.02795       -4.61185        0.31526
H          5.71114       -4.91483       -0.81510
C          5.22515        4.39570       -1.64421
C          4.95251        2.88589       -1.50545
C          4.91021        2.26914       -2.91473
C          6.10030        2.24817       -0.70037
H          5.31069        4.87139       -0.66744
H          6.15881        4.57236       -2.17816
H          4.42742        4.88741       -2.20082
H          4.76890        1.19017       -2.87087
H          4.09282        2.69530       -3.49485
H          5.83905        2.45989       -3.45201
H          5.96751        1.17042       -0.61171
H          7.06215        2.42844       -1.18003
H          6.14090        2.66261        0.30672
C          0.54478        5.54800        0.04697
C          0.91673        4.51881        1.13140
C          1.79790        5.18831        2.20131
C         -0.38195        4.03844        1.79919
H          1.43049        5.96528       -0.42989
H         -0.06841        5.08895       -0.72709
H         -0.02194        6.37486        0.47477
H          2.07744        4.47081        2.97260
H          2.71424        5.58520        1.76572
H          1.27082        6.01254        2.68158
H         -0.92660        4.87391        2.23871
H         -1.03833        3.56452        1.07190
H         -0.17015        3.32414        2.59353
H         -0.84690       -0.54903       -4.33173
H          2.72019       -0.71803       -3.49420
H         -1.76027       -2.05138       -4.39808
H         -0.19442       -1.94120       -5.20060
H          3.02165        0.65118       -4.56135
H          1.73762       -0.49055       -4.94259
