171
-217.84450985
P         -1.59454        0.35405       -0.28185
P          1.61219       -0.40582       -0.33094
C         -0.89697        1.34076       -1.60737
C          0.87038       -1.36260       -1.65530
C         -0.12822        0.73279       -2.59276
C          0.46499        1.54198       -3.58024
C          0.24170        2.90924       -3.56127
C         -0.54360        3.48848       -2.58707
C         -1.10830        2.69773       -1.60638
C          1.07561       -2.72041       -1.67142
C          0.47006       -3.50197       -2.63532
C         -0.35614       -2.91354       -3.56950
C         -0.57677       -1.54609       -3.56972
C          0.06372       -0.74467       -2.60457
Cl         1.73724        0.42816        2.76394
Cl        -1.44354       -0.28732        3.01586
C         -1.50139       -0.96043       -4.57916
C          1.30370        0.94690       -4.65560
H         -0.71616        4.55232       -2.58923
H         -1.72236        3.14121       -0.83989
H          1.71045       -3.17170       -0.92604
H          0.63638       -4.56669       -2.65054
H          0.69099        3.52275       -4.32389
H         -0.84779       -3.52038       -4.31115
C         -4.00386       -3.15980       -1.78718
C         -2.97377       -3.40172       -0.88704
C         -2.23181       -2.31512       -0.43967
C         -2.50544       -1.05405       -0.90680
C         -3.51367       -0.83339       -1.81306
C         -4.29340       -1.88985       -2.26889
H         -4.61350       -3.98472       -2.10659
H         -1.44051       -2.43880        0.27931
H         -3.69535        0.17489       -2.14549
C         -4.35706        2.78190        2.38940
C         -4.88068        1.72470        1.65468
C         -4.01574        1.01425        0.83465
C         -2.68884        1.35377        0.74664
C         -2.18939        2.40257        1.47829
C         -3.01249        3.13031        2.32768
H         -5.01013        3.34251        3.02980
H         -4.38224        0.17851        0.26522
H         -1.14283        2.64324        1.40042
C          4.37136       -2.83404        2.33687
C          3.02074       -3.15754        2.30533
C          2.19650       -2.43328        1.45224
C          2.71215       -1.42846        0.67006
C          4.05071       -1.12565        0.71562
C          4.91027       -1.81945        1.55611
H          5.01113       -3.37855        3.00535
H          1.13837       -2.62676        1.41465
H          4.42648       -0.32365        0.10561
C          3.92346        3.23113       -1.70643
C          2.89265        3.39575       -0.78983
C          2.18959        2.26570       -0.39190
C          2.49365        1.03715       -0.92234
C          3.50239        0.89363       -1.84394
C          4.25598        1.99177       -2.24088
H          4.48941        4.09651       -1.99515
H          1.40415        2.33140        0.34082
H          3.71484       -0.08613       -2.23860
Pd         0.03300        0.01216        1.35605
C         -2.51345       -5.76832       -1.59335
C         -2.71758       -4.82990       -0.38888
C         -3.92824       -5.29948        0.43714
C         -1.46034       -4.89889        0.49674
H         -1.68673       -5.42398       -2.21347
H         -2.28794       -6.78226       -1.26341
H         -3.40380       -5.81415       -2.21898
H         -3.77296       -6.30840        0.81891
H         -4.09335       -4.63770        1.28724
H         -4.83706       -5.30452       -0.16375
H         -1.26759       -5.92281        0.81674
H         -0.58273       -4.54872       -0.04603
H         -1.58049       -4.29064        1.39289
C         -6.78745       -1.95284       -2.41807
C         -5.49258       -1.67845       -3.20413
C         -5.40411       -2.64350       -4.40224
C         -5.53995       -0.23643       -3.74652
H         -6.86381       -1.29011       -1.55655
H         -7.66579       -1.79663       -3.04406
H         -6.81406       -2.97872       -2.05189
H         -5.43564       -3.68369       -4.08121
H         -6.23556       -2.48598       -5.08911
H         -4.47910       -2.49207       -4.95677
H         -4.62324        0.01115       -4.28123
H         -6.37224       -0.11080       -4.43891
H         -5.67441        0.48415       -2.94028
C         -7.14765        2.16390        2.72877
C         -6.35963        1.31678        1.71158
C         -6.46394       -0.16376        2.12598
C         -6.98726        1.50941        0.31897
H         -8.19087        1.85044        2.76687
H         -6.73364        2.05695        3.73125
H         -7.13156        3.21936        2.45778
H         -7.50561       -0.47380        2.20679
H         -5.97981       -0.81594        1.40004
H         -5.98648       -0.32672        3.09194
H         -8.03922        1.22456        0.32098
H         -6.91904        2.55125        0.00654
H         -6.47774        0.90371       -0.42921
C         -2.06233        5.43933        2.19826
C         -2.41821        4.28358        3.14849
C         -1.14973        3.79644        3.87803
C         -3.41095        4.80045        4.20787
H         -1.60877        6.26827        2.74130
H         -1.36075        5.11268        1.43272
H         -2.95357        5.81153        1.69335
H         -1.37565        2.93644        4.50806
H         -0.37152        3.49929        3.17711
H         -0.73834        4.58162        4.51191
H         -2.95472        5.58113        4.81647
H         -4.29910        5.22731        3.74269
H         -3.72146        3.99721        4.87588
C          3.24283       -5.55179        3.03803
C          2.47424       -4.23450        3.25296
C          0.97867       -4.50184        3.00352
C          2.64975       -3.75680        4.70562
H          2.84846       -6.34125        3.67763
H          3.15715       -5.88216        2.00295
H          4.30153       -5.43840        3.26733
H          0.38264       -3.60694        3.18177
H          0.81492       -4.83311        1.97914
H          0.60708       -5.28177        3.66795
H          2.25499       -4.48976        5.40889
H          3.70056       -3.59556        4.94357
H          2.12315       -2.81596        4.86531
C          7.04666       -1.85684        0.25669
C          6.39991       -1.44884        1.59116
C          7.13840       -2.16492        2.73864
C          6.54901        0.07174        1.79842
H          6.55758       -1.36188       -0.58054
H          8.10341       -1.59110        0.23550
H          6.96405       -2.93237        0.10115
H          8.18332       -1.85723        2.77720
H          6.68667       -1.92736        3.70165
H          7.12131       -3.24629        2.60509
H          7.59892        0.35302        1.87788
H          6.12015        0.63397        0.97016
H          6.04497        0.38571        2.71220
C          3.79544        5.24873        0.63049
C          2.59445        4.78603       -0.21301
C          1.34178        4.76615        0.68286
C          2.35083        5.78141       -1.36302
H          3.61097        6.22987        1.06763
H          3.98758        4.54723        1.44220
H          4.69915        5.31546        0.02557
H          1.48609        4.11694        1.54598
H          1.11689        5.76483        1.05690
H          0.47435        4.41476        0.12531
H          3.23513        5.89244       -1.98903
H          1.53250        5.44315       -1.99744
H          2.09275        6.76731       -0.97674
C          6.22699        3.10897       -3.40630
C          5.43851        1.80034       -3.20372
C          4.91925        1.32703       -4.57161
C          6.39838        0.74382       -2.62541
H          5.60074        3.88050       -3.85380
H          6.61512        3.48285       -2.45894
H          7.07584        2.94958       -4.07119
H          4.36164        0.39563       -4.48064
H          4.26295        2.07622       -5.01270
H          5.74392        1.15619       -5.26344
H          6.74380        1.03874       -1.63476
H          5.91077       -0.22615       -2.53963
H          7.27261        0.61885       -3.26408
H         -2.44600       -1.50422       -4.59433
H          2.04944        1.65979       -5.00763
H         -1.07030       -1.01085       -5.58002
H         -1.72843        0.08347       -4.35938
H          0.69338        0.65675       -5.51155
H          1.83050        0.06051       -4.29931
