111
-148.55568142
P         -2.57016        2.04654        0.91723
P          0.13116        0.42154        0.51651
C         -1.46052        1.77447        2.32531
C         -0.27229        1.10093        2.13798
C         -3.39191        3.70303        0.97658
C         -2.82318        4.63017       -0.07541
C         -1.80544        2.22382        3.58379
H         -2.74484        2.73158        3.72934
C         -0.95124        2.00545        4.65107
H         -1.21951        2.35652        5.63413
C          0.24216        1.33595        4.45895
H          0.90584        1.16419        5.29033
C          0.58070        0.87787        3.19830
H          1.50128        0.34004        3.03296
Pd        -1.31963        1.49704       -0.92896
Cl        -2.96366        2.10059       -2.32930
Cl         0.05037        0.90173       -2.61642
C         -4.88112        3.35674        0.78630
C         -4.05179        0.93981        0.92689
H         -2.96530        4.21475       -1.07441
H         -3.31069        5.60765       -0.05227
H         -1.75042        4.78176        0.06670
H         -5.13173        3.45460       -0.27899
H         -5.51540        4.09013        1.30707
H         -4.15597        0.56267       -0.09942
C         -5.20061        1.90974        1.25940
C         -3.88456       -0.20264        1.90494
H         -3.21641        4.10471        1.98258
H         -5.36280        1.90652        2.34614
H         -6.14363        1.55128        0.81920
H         -3.03034       -0.82805        1.63783
H         -3.71236        0.17366        2.91504
H         -4.77265       -0.83822        1.93328
C         -1.18410       -3.92378        0.16157
C         -1.07439       -3.33388        1.44756
C         -0.65838       -2.01551        1.53257
C         -0.43305       -1.27438        0.40281
C         -0.64497       -1.80826       -0.84017
C         -1.05742       -3.11854       -0.99872
O         -1.37913       -5.32502        0.03701
C         -1.36469       -4.11309        2.73975
H         -0.49497       -1.54934        2.48803
H         -0.46683       -1.17809       -1.69406
C         -1.32482       -3.64334       -2.41736
C          4.49988        0.76939       -0.71677
C          3.81518       -0.46367       -0.86248
C          2.48749       -0.52234       -0.47684
C          1.86381        0.55557        0.09436
C          2.54792        1.71934        0.32817
C          3.88166        1.84478       -0.02738
O          5.78633        0.93935       -1.29409
C          4.46606       -1.71650       -1.46908
H          1.91196       -1.41691       -0.63651
H          2.01816        2.53686        0.78608
C          4.62513        3.14778        0.30630
C         -1.86146       -3.16297        3.85328
C         -2.47164       -5.15968        2.51747
C         -0.07653       -4.79860        3.21954
C         -1.85278       -2.50739       -3.32450
C         -0.01438       -4.17938       -3.01393
C         -2.39851       -4.74616       -2.41045
C         -0.17074       -6.07065       -0.04358
H         -2.17697       -3.72766        4.73030
H         -1.08018       -2.47794        4.17904
H         -2.71301       -2.57580        3.51130
H         -2.72309       -5.66797        3.44799
H         -3.37521       -4.68676        2.13411
H         -2.16265       -5.91780        1.80203
H         -0.24792       -5.34818        4.14477
H          0.29671       -5.49973        2.47698
H          0.70584       -4.06263        3.40358
H         -1.08861       -1.75671       -3.51984
H         -2.16927       -2.89898       -4.29082
H         -2.70886       -2.01204       -2.86716
H          0.73813       -3.39237       -3.05895
H          0.39060       -4.98976       -2.41225
H         -0.17030       -4.55494       -4.02486
H         -3.31705       -4.38373       -1.95009
H         -2.63231       -5.07191       -3.42370
H         -2.06849       -5.61873       -1.85257
H          0.69184       -5.40851        0.04232
H         -0.14376       -6.80884        0.75785
H         -0.12848       -6.59981       -0.99535
C          5.75975        1.42196       -2.63161
C          5.97225       -1.76769       -1.15625
C          3.83869       -2.99957       -0.87539
C          4.23725       -1.71925       -2.98825
C          4.05284        3.78800        1.59158
C          6.11970        2.88420        0.56570
C          4.45599        4.14073       -0.85356
H          6.50083       -0.93317       -1.60990
H          6.14216       -1.72525       -0.08093
H          6.42013       -2.68621       -1.53469
H          4.38393       -3.88422       -1.20357
H          3.86440       -2.97562        0.21373
H          2.80438       -3.12824       -1.19099
H          4.68286       -0.84449       -3.45568
H          4.67309       -2.60603       -3.44768
H          3.17165       -1.70905       -3.21660
H          4.04092        3.06910        2.41046
H          4.65831        4.63917        1.90232
H          3.03865        4.15536        1.44254
H          6.63239        3.79759        0.86630
H          6.24745        2.14699        1.35764
H          6.61675        2.50667       -0.32435
H          3.40161        4.35504       -1.02641
H          4.86740        3.74160       -1.77746
H          4.96155        5.08190       -0.63898
H          6.24109        0.70022       -3.29126
H          4.73105        1.58261       -2.95692
H          6.31174        2.35971       -2.69300
