64
-97.20864952
Cl        -1.48948       -1.50579       -2.58934
Cl         1.62742       -1.32168       -2.91750
P          1.97156       -0.62276        0.26605
C          2.22929       -2.29863        1.00796
C          3.73693       -0.14506       -0.04469
P         -1.30366       -0.17063        0.40044
C          1.24337        0.56294        1.45231
C         -0.18858        0.78233        1.50057
C         -0.42660        1.91163        2.38825
C          0.84790        2.34964        2.93022
C          1.88454        1.52683        2.33326
H         -1.39853        2.35113        2.61785
H          1.00151        3.16901        3.63566
Pd         0.20837       -0.95902       -1.21893
H          2.95864        1.61226        2.51024
C         -4.88890        2.38105       -0.77652
C         -4.16557        1.72674       -1.75369
C         -3.08952        0.93600       -1.39811
C         -2.73078        0.81405       -0.07499
C         -3.46365        1.44684        0.90335
C         -4.54442        2.23642        0.55292
H         -5.72988        2.99688       -1.05091
H         -4.44331        1.82451       -2.79038
H         -2.54224        0.38621       -2.14491
H         -3.19825        1.30769        1.93879
H         -5.11682        2.73595        1.31725
C         -2.74887       -3.98674        2.39095
C         -2.40331       -2.89637        3.16593
C         -1.96829       -1.73078        2.56067
C         -1.88096       -1.66861        1.18923
C         -2.22775       -2.74932        0.41312
C         -2.66320       -3.91555        1.01406
H         -3.08770       -4.89511        2.86191
H         -2.47128       -2.95263        4.23996
H         -1.69093       -0.87072        3.14936
H         -2.15188       -2.66941       -0.65956
H         -2.93417       -4.76508        0.40897
C          4.08239       -0.16565       -1.51708
H          3.87077        0.86396        0.36681
C          4.52181       -1.18740        0.77609
H          4.71167       -0.80128        1.78838
C          3.74734       -2.52913        0.87387
H          5.51308       -1.34286        0.32569
C          1.73425       -2.31971        2.43776
H          1.66359       -3.01197        0.39291
H          4.10629       -3.12313        1.72669
H          3.95677       -3.13622       -0.01889
H          2.26794       -1.58106        3.03920
H          0.67046       -2.08002        2.49301
H          1.88413       -3.29792        2.90077
H          5.13011        0.09231       -1.68670
H          3.91531       -1.16014       -1.93405
H          3.46842        0.53461       -2.08595
Fe         0.80285        2.44163        0.85649
C          2.10831        3.17532       -0.53740
C          1.36454        4.26721        0.06947
C         -0.04939        4.05007       -0.18044
C         -0.16863        2.78589       -0.88472
C          1.16012        2.27461       -1.16374
H          3.19636        3.08259       -0.56837
H          1.79763        5.12617        0.58687
H         -0.87237        4.69047        0.14322
H         -1.10351        2.34024       -1.22631
H          1.39674        1.38263       -1.74682
