111
-148.55242200
P         -1.44414        2.66023        1.17719
P         -0.33018       -0.22090        0.50472
C         -0.96833        1.53774        2.52344
C         -0.55169        0.25680        2.22918
C         -0.24658        4.06656        1.08199
C          0.51257        4.03468       -0.22758
C         -0.98657        1.96787        3.83499
H         -1.26835        2.98371        4.05797
C         -0.61715        1.10253        4.85026
H         -0.63622        1.43734        5.87456
C         -0.21742       -0.18617        4.55258
H          0.07541       -0.85784        5.34270
C         -0.17359       -0.60704        3.23560
H          0.17089       -1.59731        2.98172
Pd        -1.66184        1.27186       -0.66335
Cl        -3.23590        2.63781       -1.47543
Cl        -1.52820       -0.19583       -2.36416
C         -1.13602        5.31231        1.26901
C         -3.00607        3.59375        1.52676
H         -0.17649        4.08093       -1.07341
H          1.20082        4.87897       -0.31167
H          1.09370        3.11599       -0.33010
H         -1.34393        5.74641        0.28149
H         -0.59162        6.09186        1.82294
H         -3.51761        3.69184        0.56075
C         -2.48076        4.97009        1.97195
C         -3.90521        2.89065        2.52121
H          0.43213        3.94386        1.93606
H         -2.33884        4.96301        3.06122
H         -3.23510        5.74818        1.77867
H         -4.16656        1.88768        2.17622
H         -3.41796        2.78594        3.49065
H         -4.83229        3.44588        2.68073
C         -0.84628       -4.68785       -0.22177
C         -1.85165       -3.96453        0.46962
C         -1.65097       -2.61213        0.69601
C         -0.54002       -1.97294        0.21094
C          0.38129       -2.64566       -0.54823
C          0.23770       -3.99577       -0.81924
O         -0.90803       -6.10534       -0.28915
C         -3.13460       -4.63078        0.99104
H         -2.36149       -2.03511        1.26284
H          1.22308       -2.09657       -0.93159
C          1.25490       -4.68481       -1.74261
C          3.69891        1.37698       -0.91316
C          3.37392        1.40313        0.46933
C          2.16109        0.86631        0.86745
C          1.26206        0.39038       -0.05091
C          1.51679        0.48875       -1.39337
C          2.70702        1.01450       -1.86262
O          5.02767        1.63453       -1.33753
C          4.27802        2.01758        1.55086
H          1.90362        0.81922        1.91142
H          0.75193        0.16975       -2.07975
C          2.85333        1.21526       -3.38014
C         -3.57467       -5.78289        0.06930
C         -2.89302       -5.15426        2.41486
C         -4.29996       -3.61625        1.02924
C          2.42407       -5.22256       -0.90419
C          0.59652       -5.82976       -2.53356
C          1.81211       -3.68324       -2.78028
C         -0.23813       -6.76696        0.77645
H         -2.83936       -6.58355        0.05603
H         -4.52081       -6.21037        0.40023
H         -3.70120       -5.42862       -0.95317
H         -3.79097       -5.62349        2.81606
H         -2.09253       -5.88990        2.43370
H         -2.61041       -4.34006        3.08184
H         -4.14087       -2.84747        1.78387
H         -4.42104       -3.12910        0.06203
H         -5.23830       -4.11386        1.27317
H          2.08236       -5.94892       -0.17079
H          3.16744       -5.70707       -1.53676
H          2.91557       -4.41304       -0.36498
H          0.24759       -6.61925       -1.87259
H         -0.26090       -5.46259       -3.09660
H          1.29931       -6.27534       -3.23711
H          1.00098       -3.18130       -3.30721
H          2.43928       -2.92578       -2.31245
H          2.42715       -4.19403       -3.52079
H          0.54368       -7.41045        0.37337
H          0.20414       -6.03960        1.45837
H         -0.94583       -7.39212        1.32063
C          5.82064        0.46052       -1.38789
C          3.43606        2.93948        2.46065
C          4.89264        0.89286        2.39973
C          5.40179        2.88200        0.95357
C          3.01213       -0.15270       -4.06329
C          1.58656        1.91141       -3.92640
C          4.05061        2.11141       -3.74026
H          2.66879        2.38772        3.00115
H          4.06453        3.43202        3.20214
H          2.94429        3.71300        1.87183
H          5.52524        1.30066        3.18773
H          4.11582        0.29115        2.87058
H          5.50247        0.22964        1.78880
H          4.99031        3.64313        0.29153
H          5.97069        3.38298        1.73647
H          6.09787        2.27845        0.37574
H          3.11140       -0.04005       -5.14253
H          3.89448       -0.67450       -3.69681
H          2.14626       -0.78523       -3.87146
H          1.69268        2.13423       -4.98766
H          0.70059        1.28896       -3.81347
H          1.40710        2.84960       -3.40211
H          4.99188        1.63764       -3.47165
H          3.99197        3.06176       -3.21079
H          4.07897        2.31861       -4.80974
H          5.88624        0.01234       -0.39748
H          5.37591       -0.26121       -2.07170
H          6.82184        0.71719       -1.73464
