72
-98.09642629
Fe        -0.02367        2.79128       -0.02791
P          1.79413       -0.07350        0.03372
P         -1.93643       -0.07018        0.01192
C          1.38535        1.59660        0.68403
C          0.41400        1.88251        1.72619
C          0.38170        3.32019        1.92694
C          1.35858        3.91797        1.03562
C          2.00930        2.85263        0.29304
C         -1.45294        1.54873       -0.70440
C         -2.05226        2.83703       -0.39748
C         -1.36831        3.84120       -1.19495
C         -0.39379        3.17022       -2.03682
C         -0.45297        1.75047       -1.74048
C          2.91166       -0.91667        1.25743
C          4.31238       -0.84227        0.61473
C          3.02067        0.14423       -1.34975
C          4.35319        0.15345       -0.57486
C         -3.39886       -0.67908       -0.95095
C         -4.54745        0.08257       -0.26931
C         -2.80308        0.14615        1.64395
C         -4.29743        0.26892        1.25400
H         -0.19902        1.14731        2.24463
H         -0.25343        3.85459        2.63704
H          1.59227        4.98246        0.96396
H          2.79909        2.97664       -0.45007
H         -2.85399        3.01331        0.32244
H          0.15244        0.97043       -2.20128
Cl         1.52101       -3.04616       -0.46591
Cl        -1.70570       -3.03634        0.00188
Pd        -0.07081       -1.48570       -0.12930
H          2.56973       -1.95594        1.33394
C          2.82228       -0.25596        2.62900
H          2.81570        1.11546       -1.81603
C          2.98866       -0.95633       -2.40804
H          4.61924       -1.83977        0.26848
H          5.05374       -0.55638        1.37335
H          4.55914        1.16639       -0.19800
H          5.18438       -0.08639       -1.25483
H         -1.58257        4.91228       -1.19392
H          0.26292        3.64670       -2.76794
H          3.21504        0.76685        2.55454
H          3.88100       -0.86420       -3.04259
H         -3.49068       -1.75447       -0.76117
C         -3.29038       -0.41514       -2.44842
H         -2.43381        1.07868        2.08618
C         -2.55525       -1.03037        2.59066
H         -5.50736       -0.42445       -0.45405
H         -4.64095        1.06677       -0.75105
H         -4.70568        1.23173        1.59546
H         -4.86609       -0.49208        1.80606
H         -4.26825       -0.59609       -2.91594
H         -2.74849       -1.96075        2.04081
C          3.54954       -1.03029        3.71898
H          3.14953       -2.04146        3.81532
H          4.61447       -1.12650        3.50211
H          3.45766       -0.54697        4.69432
C          1.74525       -0.94822       -3.27789
H          0.85244       -1.12202       -2.68050
H          1.62193        0.00912       -3.78765
H          1.77606       -1.72677       -4.04361
C         -2.22709       -1.26122       -3.12571
H         -1.24593       -1.06574       -2.69658
H         -2.42634       -2.32654       -2.99545
H         -2.16264       -1.06385       -4.19812
C         -1.16963       -1.06765        3.21586
H         -0.38803       -1.10906        2.45829
H         -0.98731       -0.18364        3.82956
H         -1.03736       -1.94028        3.85965
H          1.76523       -0.13874        2.90171
H          3.09540       -1.92610       -1.90620
H         -3.08774        0.65215       -2.60665
H         -3.31039       -1.00786        3.38899
