111
-148.55940817
P         -2.48910        2.29381        0.33857
P         -0.02071        0.29646        0.48883
C         -1.66843        1.98955        1.92484
C         -0.59504        1.12767        1.98193
C         -2.94366        4.07473        0.13196
C         -2.02001        4.76330       -0.84912
C         -2.12041        2.60457        3.07472
H         -2.97091        3.26488        3.02671
C         -1.48672        2.36018        4.28094
H         -1.83810        2.84063        5.17945
C         -0.40707        1.49963        4.33482
H          0.08620        1.30887        5.27369
C          0.03806        0.87853        3.18155
H          0.87696        0.20080        3.20742
Pd        -1.15283        1.30556       -1.25781
Cl        -2.59938        2.08876       -2.78587
Cl         0.20491        0.29771       -2.72978
C         -4.41592        4.00025       -0.31434
C         -4.16117        1.50973        0.23237
H         -0.98085        4.71922       -0.51399
H         -2.06830        4.28385       -1.82816
H         -2.29013        5.81348       -0.98254
H         -4.45066        3.99782       -1.41259
H         -4.95785        4.90639       -0.00331
H         -4.19268        0.99185       -0.73541
C         -5.11448        2.71982        0.22657
C         -4.38230        0.53906        1.37306
H         -2.86715        4.53592        1.12483
H         -5.46378        2.89988        1.25254
H         -6.01944        2.49071       -0.35641
H         -3.62262       -0.24617        1.37963
H         -4.32516        1.05271        2.33443
H         -5.36417        0.06412        1.30977
C         -1.16193       -4.11429        0.47193
C         -0.10967       -3.66135        1.30853
C          0.22332       -2.31680        1.27466
C         -0.49697       -1.42969        0.51764
C         -1.59210       -1.84411       -0.19527
C         -1.96976       -3.17579       -0.21874
O         -1.38230       -5.50659        0.29753
C          0.67927       -4.60684        2.22859
H          1.06366       -1.94355        1.83430
H         -2.14508       -1.11346       -0.75782
C         -3.20668       -3.58629       -1.03339
C          4.42746        0.89002       -0.29114
C          3.78266       -0.29575       -0.73233
C          2.42751       -0.43512       -0.48323
C          1.73733        0.50567        0.23438
C          2.37915        1.59660        0.76010
C          3.73512        1.79539        0.55677
O          5.72817        1.20742       -0.75987
C          4.49539       -1.44020       -1.47205
H          1.88507       -1.28080       -0.87143
H          1.80279        2.30405        1.33194
C          4.40435        2.97833        1.27720
C          1.18548       -3.85208        3.47889
C         -0.20906       -5.75975        2.73085
C          1.89250       -5.16580        1.47069
C         -3.90355       -4.80906       -0.40981
C         -4.24825       -2.44475       -1.06506
C         -2.77913       -3.89604       -2.47613
C         -0.63044       -6.08328       -0.76302
H          0.36557       -3.33715        3.97900
H          1.63221       -4.54315        4.19336
H          1.94850       -3.11764        3.22530
H         -1.09484       -5.37113        3.23219
H         -0.54059       -6.39164        1.91069
H          0.33025       -6.39170        3.43602
H          2.46901       -5.84231        2.10111
H          1.58650       -5.71293        0.58239
H          2.55129       -4.35892        1.15283
H         -3.26040       -5.68522       -0.42798
H         -4.16903       -4.61113        0.62814
H         -4.81540       -5.05897       -0.95163
H         -4.49511       -2.11865       -0.05555
H         -3.88965       -1.58477       -1.62854
H         -5.17000       -2.77603       -1.54270
H         -3.63653       -4.18052       -3.08543
H         -2.31328       -3.02390       -2.93448
H         -2.05885       -4.70996       -2.50781
H         -1.30807       -6.51269       -1.50070
H         -0.00470       -5.32811       -1.24050
H         -0.00191       -6.88350       -0.37260
C          5.71024        1.95476       -1.96479
C          4.07860       -2.79110       -0.84944
C          4.08463       -1.42176       -2.95382
C          6.02692       -1.34793       -1.35945
C          3.94735        3.00528        2.75300
C          5.93892        2.86639        1.28524
C          3.98764        4.29338        0.59817
H          4.28546       -2.79910        0.22033
H          3.01809       -2.99248       -0.99119
H          4.62795       -3.61501       -1.30423
H          4.55100       -2.24260       -3.49791
H          3.00455       -1.51888       -3.05940
H          4.38075       -0.49059       -3.43272
H          6.50684       -2.21837       -1.80620
H          6.40752       -0.46568       -1.86844
H          6.33252       -1.28909       -0.31540
H          2.88022        3.20082        2.84397
H          4.15797        2.05250        3.23797
H          4.46788        3.78643        3.30647
H          6.34537        2.94119        0.27945
H          6.38771        3.66053        1.88147
H          6.25220        1.90967        1.70163
H          2.90490        4.41424        0.61505
H          4.30776        4.31852       -0.44159
H          4.42903        5.15062        1.10587
H          5.18641        1.39959       -2.74111
H          5.20009        2.90368       -1.80887
H          6.73472        2.14483       -2.28547
