111
-148.55601146
P         -2.58232        2.03677        0.81333
P          0.15647        0.43344        0.49574
C         -1.48430        1.81761        2.24064
C         -0.28388        1.15589        2.08966
C         -3.43365        3.67916        0.82015
C         -2.85854        4.59516       -0.23806
C         -1.85432        2.29631        3.48103
H         -2.80303        2.79393        3.59876
C         -1.01390        2.11963        4.56677
H         -1.30214        2.49377        5.53557
C          0.19095        1.46149        4.41138
H          0.84390        1.32165        5.25713
C          0.55467        0.97337        3.16921
H          1.48428        0.44272        3.03381
Pd        -1.29077        1.44557       -0.99282
Cl        -2.98511        1.99084       -2.36135
Cl         0.05401        0.83122       -2.68887
C         -4.91168        3.30102        0.60541
C         -4.04395        0.90345        0.83050
H         -2.97064        4.15718       -1.23118
H         -3.36407        5.56369       -0.24581
H         -1.79214        4.76940       -0.07560
H         -5.13877        3.36514       -0.46771
H         -5.57078        4.03666        1.09101
H         -4.12162        0.49260       -0.18515
C         -5.21637        1.86168        1.11090
C         -3.87531       -0.20501        1.84690
H         -3.28808        4.10484        1.82102
H         -5.40279        1.88509        2.19348
H         -6.14302        1.47471        0.66021
H         -3.00494       -0.82258        1.61620
H         -3.72993        0.20559        2.84779
H         -4.75215       -0.85587        1.87814
C         -1.21866       -3.90258        0.25510
C         -1.05948       -3.29037        1.52522
C         -0.61771       -1.97856        1.57207
C         -0.40887       -1.26440        0.42195
C         -0.66412       -1.81904       -0.80386
C         -1.10938       -3.12264       -0.92413
O         -1.44889       -5.30122        0.16639
C         -1.33274       -4.03890        2.83907
H         -0.42649       -1.49427        2.51328
H         -0.50156       -1.20939       -1.67554
C         -1.44332       -3.66348       -2.32274
C          4.54548        0.78320       -0.66506
C          3.82421       -0.40284       -0.95411
C          2.49106       -0.46226       -0.58705
C          1.89464        0.56447        0.09640
C          2.61194        1.67295        0.46297
C          3.95322        1.79382        0.13593
O          5.84353        0.97540       -1.20846
C          4.44309       -1.59925       -1.69348
H          1.88982       -1.31510       -0.84835
H          2.10322        2.45103        1.00545
C          4.73505        3.02274        0.62653
C         -1.75465       -3.05540        3.95453
C         -2.48459       -5.04606        2.66917
C         -0.05555       -4.76594        3.28567
C         -1.98956       -2.53129       -3.22394
C         -0.16801       -4.23072       -2.96458
C         -2.53456       -4.74698       -2.25604
C         -0.26148       -6.07512        0.04997
H         -2.59320       -2.43889        3.63245
H         -2.06262       -3.59560        4.84948
H         -0.93609       -2.39827        4.24447
H         -2.72220       -5.53301        3.61462
H         -3.38287       -4.54454        2.31047
H         -2.22828       -5.82386        1.95388
H         -0.21495       -5.29332        4.22585
H          0.26366       -5.49328        2.54326
H          0.76047       -4.05805        3.42928
H         -2.35205       -2.93076       -4.17068
H         -2.81782       -2.01524       -2.73905
H         -1.22216       -1.79624       -3.46136
H          0.59196       -3.45555       -3.06023
H          0.25257       -5.03374       -2.36362
H         -0.37366       -4.62522       -3.95927
H         -3.42686       -4.36216       -1.76337
H         -2.81577       -5.08207       -3.25408
H         -2.19697       -5.61776       -1.70002
H          0.61868       -5.43392        0.11337
H         -0.23055       -6.81586        0.84895
H         -0.25778       -6.60258       -0.90363
C          5.84861        1.60994       -2.48119
C          5.94431       -1.73177       -1.38056
C          3.77282       -2.92075       -1.25049
C          4.22761       -1.42427       -3.20452
C          6.21592        2.67827        0.86930
C          4.61687        4.14902       -0.41133
C          4.16592        3.52908        1.97165
H          6.50197       -0.86900       -1.73583
H          6.10622       -1.81444       -0.30635
H          6.36724       -2.61609       -1.85658
H          4.29273       -3.77937       -1.67480
H          3.79177       -3.02056       -0.16555
H          2.73730       -2.98034       -1.58180
H          4.70013       -0.51457       -3.56719
H          4.64397       -2.26492       -3.75890
H          3.16467       -1.35931       -3.43629
H          6.71280        2.38931       -0.05342
H          6.75472        3.53189        1.27981
H          6.30706        1.85004        1.57123
H          3.57309        4.41947       -0.56913
H          5.15099        5.04028       -0.08297
H          5.02820        3.84562       -1.37099
H          4.11818        2.72088        2.70109
H          3.16679        3.94634        1.85595
H          4.79491        4.31681        2.38576
H          6.30763        0.95069       -3.21768
H          4.83018        1.84790       -2.79098
H          6.43729        2.52578       -2.43055
