45
-71.81734009
C          0.42011        0.46573        2.48261
P          1.01063        0.55974        0.75835
P         -1.61417        0.35937       -1.03441
C         -2.39882        0.12705       -2.66390
Cl         1.54330       -2.52397        0.50586
H          0.74009        1.34368        3.03629
H         -3.20606        0.84180       -2.79562
Cl        -1.14676       -2.71320       -1.55455
C          0.36900        2.02291       -0.07949
C         -0.75585        1.93982       -0.87206
C         -1.24963        3.06833       -1.49361
C         -0.60409        4.28154       -1.33009
C          0.52768        4.36259       -0.54205
C          1.01511        3.23034        0.08670
H         -2.13990        2.99631       -2.09704
H         -0.98673        5.16385       -1.81624
H          1.03046        5.30715       -0.41475
H          1.89677        3.27749        0.70572
Pd         0.00247       -1.17035       -0.40038
H         -2.80328       -0.87844       -2.73702
H          0.81978       -0.42392        2.96100
H         -1.66396        0.26946       -3.45107
C         -4.47165       -0.25185        2.44451
C         -4.15280       -1.31051        1.61654
C         -3.29184       -1.11479        0.55253
C         -2.76484        0.13446        0.32075
C         -3.06999        1.19050        1.14798
C         -3.92991        0.99794        2.21417
H         -5.14135       -0.40249        3.27543
H         -4.56692       -2.28788        1.80211
H         -2.99953       -1.93316       -0.08612
H         -2.63170        2.15720        0.95942
H         -4.17450        1.82166        2.86450
C          5.53804        0.39059        0.34712
C          4.72807        0.07210       -0.72482
C          3.35227        0.12489       -0.58829
C          2.79781        0.48899        0.61758
C          3.60105        0.81216        1.68782
C          4.97697        0.76210        1.55300
H          6.60993        0.34891        0.24248
H          5.16515       -0.21913       -1.66578
H          2.70666       -0.11942       -1.41732
H          3.15191        1.10321        2.62356
H          5.60948        1.01227        2.38889
H         -0.66494        0.41680        2.49895
