111
-148.55641076
P         -2.63555        2.00758        0.47724
P          0.10767        0.43018        0.51287
C         -1.80069        1.68951        2.05560
C         -0.58138        1.04678        2.05991
C         -3.47547        3.65623        0.45958
C         -2.69877        4.66676       -0.35594
C         -2.37780        2.07641        3.24819
H         -3.34022        2.56120        3.24222
C         -1.72493        1.82444        4.44269
H         -2.17493        2.12603        5.37446
C         -0.50001        1.18474        4.44304
H          0.00620        0.98604        5.37333
C          0.07195        0.79007        3.24694
H          1.01873        0.27311        3.22896
Pd        -1.07770        1.51753       -1.14803
Cl        -2.43945        2.36874       -2.71272
Cl         0.54184        0.97272       -2.61146
C         -4.87343        3.31887       -0.09127
C         -4.07908        0.89579        0.15292
H         -1.68964        4.80460        0.03968
H         -2.60176        4.33779       -1.39135
H         -3.19610        5.63944       -0.36525
H         -4.86441        3.45507       -1.18155
H         -5.61932        4.03290        0.28997
H         -3.95684        0.53325       -0.87663
C         -5.28100        1.85506        0.24305
C         -4.11886       -0.26064        1.12828
H         -3.54701        3.98048        1.50551
H         -5.69112        1.81308        1.26147
H         -6.09350        1.51353       -0.41617
H         -4.17221        0.10128        2.15670
H         -4.98728       -0.90041        0.95492
H         -3.22268       -0.87861        1.04450
C         -1.34104       -3.82896       -0.18726
C         -0.77594       -3.08534       -1.25460
C         -0.36143       -1.79031       -1.00005
C         -0.42423       -1.26057        0.26066
C         -0.86344       -2.01282        1.31781
C         -1.29545       -3.31552        1.13455
O         -1.98803       -5.06626       -0.44691
C         -0.64180       -3.64046       -2.68046
H          0.00274       -1.15891       -1.79167
H         -0.87779       -1.56058        2.29366
C         -1.73548       -4.13575        2.35706
C          4.63755        0.66157        0.16038
C          4.02214       -0.52799        0.63321
C          2.64022       -0.55909        0.71863
C          1.88779        0.55026        0.43360
C          2.48350        1.73843        0.10245
C          3.86118        1.83975       -0.00554
O          6.00359        0.65003       -0.22185
C          4.79458       -1.78795        1.05887
H          2.13039       -1.46710        0.99412
H          1.85414        2.59011       -0.09444
C          4.45794        3.22548       -0.30385
C         -0.43114       -5.16516       -2.66728
C         -1.90295       -3.28456       -3.48223
C          0.58540       -3.02243       -3.38955
C         -0.95613       -3.69545        3.61738
C         -3.23511       -3.91468        2.60672
C         -1.44675       -5.63389        2.15174
C         -3.37359       -4.94146       -0.74220
H         -0.27272       -5.54764       -3.67529
H          0.43784       -5.42692       -2.06447
H         -1.29265       -5.68151       -2.25152
H         -2.79283       -3.71445       -3.02843
H         -2.04084       -2.20422       -3.52281
H         -1.83327       -3.65470       -4.50469
H          0.44493       -1.96119       -3.58894
H          1.48341       -3.14108       -2.78374
H          0.76230       -3.50675       -4.34952
H          0.11829       -3.71853        3.43649
H         -1.23015       -2.68892        3.93022
H         -1.16888       -4.35912        4.45517
H         -3.44343       -2.86210        2.79656
H         -3.82731       -4.21973        1.74730
H         -3.57533       -4.48605        3.46997
H         -2.02593       -6.03994        1.32614
H         -0.39204       -5.79452        1.93084
H         -1.69792       -6.20740        3.04364
H         -3.57193       -5.33020       -1.74084
H         -3.95326       -5.52589       -0.02783
H         -3.68101       -3.89607       -0.69171
C          6.19005        0.29072       -1.58088
C          4.61380       -2.88180       -0.00704
C          6.29392       -1.51356        1.26800
C          4.23789       -2.30015        2.40609
C          3.79744        4.27817        0.61376
C          5.97164        3.28295       -0.03419
C          4.18156        3.59346       -1.77124
H          3.55985       -3.12282       -0.14317
H          5.00735       -2.56230       -0.96999
H          5.13249       -3.79577        0.28108
H          6.44005       -0.69292        1.96948
H          6.80311       -2.39286        1.66186
H          6.78001       -1.24361        0.33358
H          3.20386       -2.62967        2.31883
H          4.81833       -3.14809        2.76883
H          4.27951       -1.51638        3.16194
H          2.73482        4.38878        0.40457
H          3.90806        3.99854        1.66108
H          4.25779        5.25632        0.47662
H          6.35461        4.29566       -0.15790
H          6.19369        2.95668        0.98125
H          6.51906        2.63915       -0.71842
H          4.56786        4.58545       -2.00376
H          3.11183        3.59219       -1.97814
H          4.64992        2.88366       -2.45011
H          7.25414        0.31522       -1.81677
H          5.80476       -0.71171       -1.75916
H          5.66124        0.98842       -2.22795
