59
-75.79818230
Cl         1.56014        0.96005        2.24345
P          1.60607        0.00885       -0.77263
P         -1.57518       -0.12149       -0.84393
C          0.69026        0.60736       -2.26119
H          0.50613        1.67553       -2.13017
H          1.34057        0.49692       -3.13407
C         -0.60054       -0.15148       -2.41959
H         -0.39983       -1.19643       -2.66621
H         -1.22168        0.25220       -3.22503
C          2.19159       -1.72260       -1.08420
H          1.68629       -2.03283       -2.00794
C          3.25169        0.83287       -0.60491
H          3.51907        0.77266        0.45711
C         -2.44543       -1.71274       -0.45486
H         -2.20438       -1.93805        0.59138
C         -3.02929        1.02486       -0.92363
H         -3.19201        1.23519       -1.98764
C          3.71053       -1.57785       -1.33330
H          4.25980       -2.06611       -0.51936
H          4.00187       -2.13123       -2.23851
C          4.15730       -0.09188       -1.43738
H          4.11723        0.23354       -2.48668
H          5.20870        0.02683       -1.13279
C         -3.93359       -1.34702       -0.59447
H         -4.27238       -1.61942       -1.60346
H         -4.54293       -1.95169        0.09433
C         -4.17756        0.16780       -0.36079
H         -4.26333        0.35983        0.71778
H         -5.13916        0.48335       -0.79368
C          1.81547       -2.65485        0.06723
H          2.08324       -3.68604       -0.20259
H          0.72232       -2.65773        0.17494
C          3.24093        2.28740       -1.05866
H          4.27573        2.65233       -1.12007
H          2.85747        2.33761       -2.08582
C         -2.00333       -2.86296       -1.35249
H         -2.25441       -2.61701       -2.39262
H         -0.90886       -2.94273       -1.32995
C         -2.81377        2.32613       -0.15860
H         -3.76337        2.87783       -0.11918
H         -2.57707        2.08762        0.88607
C          2.44786       -2.29490        1.40537
H          2.24113       -1.26005        1.67687
H          3.53241       -2.40864        1.39091
H          2.07186       -2.92389        2.21560
C          2.42636        3.18590       -0.14132
H          2.83452        3.18837        0.87109
H          1.39541        2.84026       -0.06313
H          2.40273        4.22049       -0.49084
C         -2.62727       -4.19401       -0.96070
H         -2.37082       -4.46139        0.06621
H         -2.29288       -5.00955       -1.60607
H         -3.71642       -4.15511       -1.02012
C         -1.72758        3.20460       -0.75455
H         -1.61373        4.14429       -0.20919
H         -0.76290        2.69954       -0.73446
H         -1.94295        3.45049       -1.79606
Cl        -1.70257        0.31381        2.33883
Pd        -0.04161        0.25523        0.83727
