111
-148.55370315
P         -2.50004        2.13264        0.97822
P          0.08640        0.36638        0.52510
C         -1.44003        1.71503        2.38752
C         -0.29431        0.97911        2.17746
C         -3.17986        3.84864        1.11383
C         -2.50651        4.78601        0.13529
C         -1.77644        2.11548        3.66475
H         -2.68379        2.67403        3.82657
C         -0.95529        1.78357        4.72869
H         -1.21696        2.09546        5.72664
C          0.19681        1.05138        4.51400
H          0.83465        0.79141        5.34269
C          0.52670        0.64422        3.23365
H          1.41411        0.05901        3.04912
Pd        -1.31403        1.53970       -0.90973
Cl        -2.96020        2.41700       -2.14690
Cl         0.13930        0.92321       -2.51462
C         -4.68719        3.64117        0.87426
C         -4.07129        1.15771        0.92745
H         -2.90828        5.79909        0.21159
H         -1.42872        4.83365        0.30877
H         -2.65769        4.44870       -0.89113
H         -4.89937        3.80221       -0.19170
H         -5.27026        4.40529        1.41047
H         -4.19034        0.82746       -0.11325
C         -5.14008        2.20897        1.27934
C         -4.01391       -0.02930        1.86419
H         -2.99855        4.17437        2.14602
H         -5.32640        2.17559        2.36164
H         -6.10016        1.95192        0.80644
H         -4.94987       -0.59266        1.85405
H         -3.20603       -0.71008        1.58724
H         -3.83203        0.29480        2.89055
C         -1.19919       -3.97337        0.02462
C         -1.22862       -3.38565        1.31587
C         -0.82647       -2.06679        1.44614
C         -0.48384       -1.32277        0.34787
C         -0.56489       -1.85366       -0.91164
C         -0.95377       -3.16537       -1.11461
O         -1.37332       -5.37518       -0.12295
C         -1.64737       -4.16814        2.57039
H         -0.76020       -1.60490        2.41513
H         -0.30286       -1.21922       -1.74014
C         -1.06321       -3.69306       -2.55301
C          4.45793        0.72136       -0.69003
C          3.85590       -0.55812       -0.58191
C          2.52512       -0.62455       -0.20741
C          1.82172        0.50552        0.11705
C          2.42455        1.73528        0.10941
C          3.75505        1.87386       -0.25263
O          5.74837        0.85048       -1.26924
C          4.60168       -1.86132       -0.90914
H          2.00932       -1.56837       -0.18434
H          1.83088        2.59319        0.37523
C          4.39718        3.26935       -0.20979
C         -2.70990       -5.22982        2.23257
C         -0.40947       -4.83537        3.18850
C         -2.27493       -3.22418        3.62128
C          0.30321       -4.23636       -2.99799
C         -2.13541       -4.79197       -2.66251
C         -1.48100       -2.55849       -3.51704
C         -0.16090       -6.11658       -0.06641
H         -2.31519       -5.98579        1.55832
H         -3.05527       -5.73888        3.13205
H         -3.57202       -4.76979        1.75073
H         -0.67337       -5.39058        4.08826
H          0.05475       -5.52800        2.49056
H          0.33613       -4.08804        3.45909
H         -2.67159       -3.79232        4.46240
H         -1.54479       -2.52444        4.02501
H         -3.09581       -2.65351        3.18866
H          0.26072       -4.61070       -4.02044
H          1.05999       -3.45345       -2.95635
H          0.63324       -5.04915       -2.35536
H         -1.87241       -5.66406       -2.06926
H         -3.09792       -4.42496       -2.30776
H         -2.25662       -5.11985       -3.69462
H         -0.69661       -1.81119       -3.62636
H         -1.68734       -2.95217       -4.51192
H         -2.38168       -2.05912       -3.16100
H         -0.01894       -6.65895       -1.00099
H          0.68623       -5.44957        0.09894
H         -0.21474       -6.84343        0.74393
C          5.73437        1.04412       -2.67815
C          4.43977       -2.17690       -2.40396
C          6.09326       -1.75170       -0.54550
C          4.02365       -3.04237       -0.09514
C          5.90092        3.18157        0.10817
C          4.17931        3.96819       -1.56058
C          3.75414        4.13210        0.90003
H          3.38617       -2.27512       -2.66407
H          4.85948       -1.38743       -3.02222
H          4.94047       -3.10944       -2.66301
H          6.61016       -2.69452       -0.72269
H          6.59102       -0.98752       -1.13717
H          6.21359       -1.49104        0.50548
H          4.00030       -2.80608        0.96837
H          3.01334       -3.29638       -0.41312
H          4.63268       -3.93659       -0.22574
H          6.44256        2.65441       -0.67299
H          6.34041        4.17445        0.20052
H          6.06442        2.64967        1.04481
H          4.61197        4.96829       -1.55771
H          4.63451        3.40732       -2.37312
H          3.11561        4.06045       -1.77883
H          4.29107        5.07305        1.01818
H          3.77618        3.61170        1.85719
H          2.71987        4.38229        0.66871
H          6.20941        1.99407       -2.92237
H          6.29980        0.24799       -3.16218
H          4.70947        1.04278       -3.05158
