105
-153.06292079
Cl         0.46116        3.63485        1.63677
Pd        -0.13965        1.91525        0.31488
P         -0.73002        0.26728       -1.29787
N          0.10917       -1.14427       -1.97039
C          0.18530       -2.48053       -1.58974
C         -0.14605       -2.97683       -0.29956
C          0.15671       -4.31798        0.02304
C         -0.00905       -4.78379        1.45176
C          0.78074       -6.05900        1.78024
C          0.53663       -7.12953        0.71280
C          0.97687       -6.63340       -0.67422
C          0.65743       -5.18360       -0.95182
C          0.90493       -4.69304       -2.22682
C          0.69312       -3.37390       -2.53248
H          0.93186       -3.00672       -3.51569
H          1.29860       -5.36129       -2.97413
H          2.05846       -6.77501       -0.78731
H          1.04987       -8.06534        0.97553
H          1.85150       -5.82285        1.82019
H          0.29062       -3.97169        2.12641
C         -0.71532       -2.11712        0.77277
C          0.12863       -1.15735        1.39126
C         -0.30999       -0.50314        2.54316
C         -1.55742       -0.75633        3.05162
C         -2.42174       -1.65762        2.43668
C         -3.77747       -1.87981        3.06662
C         -4.74212       -2.76062        2.25144
C         -3.99803       -3.88741        1.52742
C         -2.93232       -3.30113        0.59191
C         -2.00226       -2.34319        1.29291
H         -2.36187       -4.09903        0.10304
H         -4.69696       -4.53147        0.97518
H         -5.26358       -2.14238        1.51092
H         -4.23490       -0.90102        3.25941
H         -1.88880       -0.24054        3.93691
H          0.33156        0.22203        3.00908
N          1.28552       -0.78456        0.71119
P          1.82731        0.83181        0.97112
C          2.90921        1.35980       -0.34870
C          3.11812        2.70484       -0.53964
C          3.86896        3.13462       -1.61841
C          4.39969        2.21883       -2.51760
C          4.18024        0.86433       -2.30254
C          3.42988        0.43578       -1.22250
H          3.23705       -0.61319       -1.06544
H          4.59354        0.14755       -2.99140
C          5.21284        2.67875       -3.67712
H          4.03453        4.18658       -1.77616
H          2.65492        3.40869        0.13428
C          2.63910        0.89983        2.56671
C          2.50040        1.98539        3.39701
C          3.13441        1.99972        4.62440
C          3.90745        0.92060        5.03162
C          4.04172       -0.16521        4.17629
C          3.40500       -0.17598        2.94751
H          3.49224       -1.02179        2.28333
H          4.64700       -1.00278        4.47821
C          4.61159        0.94503        6.34365
H          3.03215        2.85120        5.27532
H          1.88879        2.81298        3.08041
H          1.12492       -0.86718       -0.29197
H          0.33011       -0.92832       -2.93462
C         -0.60751        1.45346       -2.64595
C         -1.71052        1.89567       -3.33582
C         -1.55780        2.81209       -4.35975
C         -0.29965        3.29383       -4.69653
C          0.80316        2.82449       -3.99657
C          0.64664        1.90817       -2.97303
H          1.49976        1.55338       -2.41904
H          1.78513        3.18349       -4.25302
C         -0.13212        4.26673       -5.81128
H         -2.41873        3.16296       -4.90269
H         -2.68796        1.53250       -3.06495
C         -2.46406       -0.15405       -1.13252
C         -3.01201       -0.97048       -2.09309
C         -4.35889       -1.28478       -2.04410
C         -5.16235       -0.78645       -1.02803
C         -4.59040        0.03893       -0.06874
C         -3.24554        0.35395       -0.12226
H         -2.80532        1.00061        0.61877
H         -5.20487        0.43762        0.72018
C         -6.60924       -1.13488       -0.97796
H         -4.79343       -1.92447       -2.79312
H         -2.38070       -1.36019       -2.87620
Cl        -1.88308        3.12926       -0.43054
H          0.51889       -7.24891       -1.45907
H          0.52296       -6.43578        2.78019
H         -0.53208       -7.37771        0.68913
H         -1.07148       -4.95545        1.65407
H         -3.51550       -4.53827        2.26706
H         -3.42414       -2.76551       -0.22605
H         -3.62342       -2.32752        4.05579
H         -5.53293       -3.17062        2.89526
H          5.09112        2.01167       -4.53173
H          4.91579        3.67932       -3.99458
H          6.27254        2.70761       -3.42012
H          4.73708       -0.06262        6.74234
H          5.60103        1.39331        6.24377
H          4.05235        1.52430        7.07971
H         -1.00961        4.90733       -5.90958
H          0.73095        4.91248       -5.64331
H          0.01460        3.74807       -6.75965
H         -6.74809       -2.21702       -0.96824
H         -7.08615       -0.73024       -0.08419
H         -7.13454       -0.73527       -1.84651
