111
-148.55087521
P         -2.23243        2.22127        1.22753
P          0.08792        0.15374        0.57414
C         -1.20514        1.56461        2.56722
C         -0.19461        0.67521        2.27517
C         -2.48556        4.04452        1.41347
C         -1.99263        4.78643        0.19036
C         -1.42394        1.95273        3.87339
H         -2.20913        2.65706        4.09489
C         -0.63291        1.43826        4.88628
H         -0.80428        1.73904        5.90696
C          0.37575        0.54118        4.59075
H          0.99106        0.14016        5.37924
C          0.59647        0.15891        3.27946
H          1.37926       -0.54027        3.02933
Pd        -1.31490        1.44453       -0.74283
Cl        -2.98474        2.41683       -1.87483
Cl        -0.13758        0.66092       -2.49207
C         -4.00485        4.16797        1.65652
C         -3.98730        1.63636        1.25728
H         -0.93449        4.58746        0.00355
H         -2.54730        4.47602       -0.69650
H         -2.12044        5.86627        0.29737
H         -4.37268        5.10178        1.20704
H         -4.20544        4.26059        2.73402
H         -4.11485        0.97985        0.38552
C         -4.78433        2.94639        1.09228
C         -4.29569        0.88726        2.53551
H         -1.91561        4.35200        2.30083
H         -5.76246        2.84754        1.58547
H         -5.00313        3.11636        0.02767
H         -5.31827        0.50232        2.53898
H         -3.61508        0.04469        2.67407
H         -4.18820        1.54209        3.40181
C         -1.22845       -4.15855       -0.08313
C         -1.69435       -3.44536        1.05156
C         -1.25386       -2.14460        1.23597
C         -0.45441       -1.53179        0.30629
C         -0.11119       -2.17401       -0.85415
C         -0.49701       -3.48175       -1.09162
O         -1.47108       -5.55321       -0.20144
C         -2.64879       -4.06511        2.08479
H         -1.52632       -1.59078        2.11730
H          0.45721       -1.62603       -1.58479
C         -0.09803       -4.15349       -2.41471
C          4.30224        0.96427       -0.94055
C          3.93461       -0.36004       -0.58952
C          2.65022       -0.58242       -0.12222
C          1.77349        0.45553        0.05574
C          2.15953        1.74932       -0.17718
C          3.43112        2.04307       -0.64151
O          5.52404        1.20364       -1.62417
C          4.88480       -1.55555       -0.76023
H          2.30883       -1.57983        0.09202
H          1.43920        2.53219       -0.00993
C          3.81997        3.51335       -0.86023
C         -3.54736       -2.97771        2.71635
C         -3.58859       -5.09250        1.42757
C         -1.82937       -4.73131        3.20024
C          1.23649       -4.89153       -2.22881
C         -1.18752       -5.13492       -2.88257
C          0.07674       -3.10179       -3.53422
C         -0.48048       -6.37084        0.40880
H         -4.31141       -3.42699        3.35038
H         -2.97436       -2.29554        3.34249
H         -4.05242       -2.39752        1.94447
H         -4.30886       -5.48144        2.14689
H         -4.14126       -4.63622        0.60698
H         -3.03570       -5.93812        1.02666
H         -1.18951       -4.00160        3.69599
H         -2.48168       -5.17445        3.95230
H         -1.18965       -5.51670        2.80519
H          1.15479       -5.67189       -1.47659
H          1.55954       -5.35548       -3.16037
H          2.01593       -4.20204       -1.90659
H         -2.14584       -4.62589       -2.97989
H         -0.93430       -5.56999       -3.84901
H         -1.31400       -5.95215       -2.17654
H          0.22846       -3.58505       -4.49904
H         -0.80577       -2.46747       -3.61276
H          0.94232       -2.46507       -3.35682
H         -0.06914       -7.05730       -0.33112
H          0.32044       -5.75580        0.82108
H         -0.93187       -6.96227        1.20503
C          5.41143        1.16686       -3.04151
C          6.34687       -1.13995       -0.51670
C          4.55570       -2.66730        0.26211
C          4.72531       -2.13212       -2.17541
C          3.09053        4.42623        0.15208
C          5.32950        3.72856       -0.64906
C          3.41479        3.93708       -2.28045
H          7.01398       -1.99943       -0.57773
H          6.68041       -0.41223       -1.25228
H          6.45917       -0.69249        0.47028
H          5.30547       -3.45747        0.22860
H          4.53563       -2.26816        1.27587
H          3.59288       -3.13282        0.05656
H          3.69440       -2.43645       -2.35311
H          4.98647       -1.39753       -2.93290
H          5.36471       -3.00305       -2.31711
H          3.24881        4.07765        1.17230
H          3.46042        5.44922        0.08662
H          2.01853        4.46254       -0.03595
H          5.91605        3.17704       -1.37925
H          5.59214        4.78190       -0.74385
H          5.62967        3.39190        0.34266
H          2.34175        3.81498       -2.42676
H          3.91975        3.33454       -3.03145
H          3.66428        4.98197       -2.46293
H          5.69461        2.13347       -3.45756
H          6.08960        0.41363       -3.44224
H          4.38801        0.92975       -3.33531
