87
-129.18853672
P         -1.64234       -0.36755       -0.24473
P          1.65486        0.39095       -0.06035
C         -1.34315        0.92137       -1.46778
C          1.46415       -0.68487       -1.49177
C         -0.32366        0.80813       -2.40828
C         -0.09526        1.87993       -3.29333
C         -0.89836        3.00512       -3.21710
C         -1.90808        3.09562       -2.28366
C         -2.12391        2.05037       -1.40775
C          2.24866       -1.81093       -1.55529
C          2.10912       -2.69960       -2.60282
C          1.17196       -2.45572       -3.58348
C          0.36655       -1.33045       -3.53774
C          0.51769       -0.41716       -2.47596
Cl         1.16118        0.77744        3.10491
Cl        -1.44780       -1.18703        2.83772
H         -2.52079        3.98067       -2.23146
H         -2.90736        2.11710       -0.67137
H          2.97445       -1.99823       -0.78145
H          2.72419       -3.58338       -2.64815
H         -0.71969        3.82074       -3.89709
H          1.05261       -3.14990       -4.39799
C         -1.55313       -4.54244       -2.03099
C         -0.74766       -4.25260       -0.93820
C         -0.81103       -2.97834       -0.38836
C         -1.63117       -2.02044       -0.93812
C         -2.42202       -2.31281       -2.02426
C         -2.38645       -3.58232       -2.57096
H         -1.52109       -5.53034       -2.45786
C          0.14505       -5.28475       -0.34506
H         -0.20905       -2.73681        0.47114
H         -3.05164       -1.54467       -2.44526
H         -3.00368       -3.81939       -3.42195
C         -5.48248        0.48170        2.05144
C         -5.42175       -0.59755        1.19209
C         -4.25906       -0.85625        0.49113
C         -3.16776       -0.03561        0.65403
C         -3.22483        1.03824        1.51267
C         -4.38775        1.31818        2.21980
H         -6.38382        0.67947        2.60621
H         -6.27756       -1.24145        1.07194
H         -4.19446       -1.70105       -0.17464
H         -2.35539        1.66027        1.64866
C         -4.43256        2.45942        3.17369
C          5.27642       -0.87094        2.39643
C          5.29337        0.33169        1.71788
C          4.19523        0.71910        0.97339
C          3.09243       -0.09970        0.90842
C          3.07212       -1.29700        1.58656
C          4.16280       -1.69799        2.34817
H          6.13154       -1.17579        2.97531
H          6.16068        0.96926        1.77001
H          4.19142        1.65894        0.44629
H          2.19898       -1.92639        1.53422
C          4.13934       -3.00078        3.06714
C          1.72594        4.79538       -1.16321
C          2.59880        3.91977       -1.77909
C          2.58555        2.57939       -1.44001
C          1.70625        2.13164       -0.48242
C          0.84572        3.00308        0.14389
C          0.83170        4.34916       -0.19974
H          1.73243        5.83885       -1.42843
H          3.28544        4.27876       -2.52811
H          3.24647        1.87772       -1.92432
H          0.17486        2.63764        0.90287
C         -0.10301        5.28919        0.47602
Pd        -0.05046       -0.11857        1.44248
C          0.99064        1.83028       -4.31152
C         -0.63989       -1.11261       -4.61381
H          1.70931        1.04007       -4.09187
H          0.58248        1.64871       -5.30649
H          1.53881        2.77296       -4.34121
H         -1.37966       -0.36551       -4.32436
H         -0.15956       -0.77409       -5.53261
H         -1.17633       -2.03593       -4.83679
H          1.05013       -4.83147        0.06248
H         -0.35964       -5.81491        0.46372
H          0.45039       -6.01881       -1.09207
H         -3.82748        3.29366        2.81549
H         -5.45235        2.82271        3.30827
H         -4.04877        2.16076        4.15016
H          3.14410       -3.21043        3.46204
H          4.41577       -3.81751        2.39883
H          4.83524       -3.00149        3.90720
H         -0.35035        6.13238       -0.17046
H         -1.03662        4.78999        0.74030
H          0.33916        5.68340        1.39200
