171
-217.84634034
P         -1.61261        0.41359       -0.30742
P          1.62725       -0.41006       -0.28836
C         -0.86670        1.34807       -1.64634
C          0.87544       -1.38357       -1.59730
C         -0.07920        0.70475       -2.59440
C          0.56073        1.47958       -3.58059
C          0.36600        2.85089       -3.59657
C         -0.43646        3.46657       -2.65917
C         -1.04734        2.70909       -1.67955
C          1.05461       -2.74524       -1.58103
C          0.44220       -3.53798       -2.53134
C         -0.36182       -2.95657       -3.48887
C         -0.55593       -1.58554       -3.52273
C          0.08709       -0.77492       -2.56754
Cl         1.65767        0.42470        2.80855
Cl        -1.53738       -0.26784        2.92632
C         -1.43453       -0.99733       -4.57091
C          1.42958        0.84985       -4.61250
H         -0.58532        4.53356       -2.68811
H         -1.67094        3.18193       -0.93852
H          1.67678       -3.19143       -0.82232
H          0.58958       -4.60552       -2.52060
H          0.85406        3.43831       -4.35595
H         -0.85318       -3.57119       -4.22423
C         -3.92283       -3.24238       -1.61223
C         -2.91493       -3.39200       -0.66808
C         -2.20594       -2.25859       -0.29081
C         -2.48574       -1.04423       -0.86536
C         -3.47279       -0.91469       -1.81126
C         -4.22046       -2.01976       -2.20100
H         -4.51006       -4.10125       -1.87996
H         -1.43926       -2.30863        0.46271
H         -3.66462        0.06071       -2.22549
C         -4.42480        2.90819        2.23952
C         -4.93489        1.83858        1.51297
C         -4.05270        1.10820        0.72970
C         -2.72258        1.44052        0.67016
C         -2.23524        2.49941        1.39492
C         -3.07715        3.24944        2.20583
H         -5.09134        3.48412        2.85186
H         -4.40702        0.26051        0.16989
H         -1.18508        2.73098        1.34098
C          4.39429       -2.88631        2.31871
C          3.03299       -3.16647        2.33480
C          2.20840       -2.42461        1.49927
C          2.72594       -1.42572        0.71259
C          4.07066       -1.15047        0.72405
C          4.93708       -1.88571        1.52239
H          5.05484       -3.45125        2.94898
H          1.14850       -2.61297        1.47449
H          4.43791       -0.34491        0.11413
C          3.90974        3.22085       -1.71653
C          2.91281        3.38780       -0.76403
C          2.21911        2.25896       -0.34720
C          2.50181        1.03091       -0.89061
C          3.47826        0.88418       -1.84529
C          4.21067        1.98499       -2.27506
H          4.48436        4.07737       -2.01715
H          1.46075        2.32480        0.41334
H          3.67060       -0.09942       -2.23900
Pd         0.00469        0.05807        1.33036
C         -1.39681       -4.73942        0.85731
C         -2.64947       -4.76562       -0.03859
C         -2.42687       -5.80985       -1.14904
C         -3.86204       -5.16791        0.81880
H         -0.52370       -4.41957        0.28950
H         -1.52989       -4.06179        1.70014
H         -1.18894       -5.72972        1.26217
H         -2.19090       -6.78551       -0.72449
H         -3.31282       -5.92583       -1.77177
H         -1.60059       -5.51452       -1.79451
H         -3.70193       -6.13655        1.29193
H         -4.03834       -4.43269        1.60383
H         -4.76612       -5.23454        0.21435
C         -6.70680       -2.16228       -2.41763
C         -5.39535       -1.90826       -3.18291
C         -5.24215       -2.95308       -4.30495
C         -5.46490       -0.51003       -3.82786
H         -6.82768       -1.44114       -1.60961
H         -7.56862       -2.07669       -3.07922
H         -6.71844       -3.15937       -1.97848
H         -5.26116       -3.96823       -3.91096
H         -6.05143       -2.86590       -5.02975
H         -4.30071       -2.81804       -4.83572
H         -5.63958        0.26152       -3.07844
H         -4.54117       -0.27530       -4.35597
H         -6.28120       -0.45663       -4.54809
C         -6.52259       -0.02782        2.04247
C         -6.41377        1.42826        1.55058
C         -7.00517        1.54037        0.13315
C         -7.23243        2.32649        2.49720
H         -6.00940       -0.71409        1.36974
H         -6.07624       -0.13363        3.03099
H         -7.56430       -0.34172        2.10594
H         -6.48056        0.89042       -0.56596
H         -8.05790        1.25843        0.12543
H         -6.92565        2.56209       -0.23759
H         -6.85296        2.26928        3.51725
H         -7.20321        3.36696        2.17423
H         -8.27733        2.01690        2.51617
C         -2.10955        5.54959        2.04668
C         -2.49961        4.41962        3.01463
C         -1.25548        3.94435        3.79210
C         -3.51923        4.96824        4.03168
H         -1.38583        5.20168        1.31161
H         -2.98329        5.91188        1.50527
H         -1.66963        6.39055        2.58241
H         -1.50450        3.10216        4.43730
H         -0.45974        3.62508        3.12120
H         -0.85727        4.74332        4.41712
H         -3.07607        5.76173        4.63333
H         -4.39118        5.38768        3.53048
H         -3.85347        4.18386        4.71057
C          1.18710       -3.71062        3.95477
C          2.42607       -4.26339        3.22082
C          3.42915       -4.75636        4.28203
C          2.01918       -5.45097        2.33275
H          0.77551       -4.45277        4.63842
H          1.44715       -2.82479        4.53381
H          0.39708       -3.43331        3.25898
H          4.29118       -5.23616        3.81943
H          3.78210       -3.92944        4.89807
H          2.96456       -5.48864        4.94228
H          2.88917       -5.87106        1.82834
H          1.55430       -6.24087        2.92241
H          1.31137       -5.13932        1.56665
C          6.83102       -1.13883        2.98129
C          6.44512       -1.60110        1.56478
C          6.84239       -0.49816        0.56343
C          7.21929       -2.88293        1.20535
H          6.61164       -1.90787        3.72108
H          7.89493       -0.91024        3.04151
H          6.27599       -0.24229        3.25688
H          6.34649        0.44353        0.79826
H          7.91713       -0.31902        0.59057
H          6.58038       -0.78329       -0.45532
H          7.02009       -3.68140        1.91896
H          6.93440       -3.23926        0.21555
H          8.29391       -2.70112        1.20211
C          2.39893        5.78755       -1.30654
C          2.64063        4.77602       -0.17010
C          3.85706        5.21232        0.66475
C          1.39590        4.76349        0.73735
H          1.57004        5.46722       -1.93649
H          2.15743        6.77221       -0.90661
H          3.27845        5.89473       -1.93988
H          4.04665        4.50077        1.46826
H          4.75510        5.26968        0.05042
H          3.69269        6.19239        1.11220
H          1.54276        4.11148        1.59792
H          1.18127        5.76277        1.11577
H          0.52140        4.41906        0.18640
C          6.68982        2.17126       -2.55256
C          5.36738        1.86158       -3.27732
C          5.16866        2.86192       -4.43234
C          5.45355        0.44227       -3.87178
H          7.53777        2.08301       -3.23151
H          6.68870        3.18253       -2.14706
H          6.84668        1.48049       -1.72482
H          4.22042        2.68827       -4.93882
H          5.17258        3.89059       -4.07455
H          5.96529        2.76652       -5.17000
H          4.52648        0.17112       -4.37600
H          6.25942        0.37750       -4.60273
H          5.65435       -0.29743       -3.09710
H         -1.74644        0.01461       -4.30908
H          1.77456       -0.13535       -4.29577
H         -2.33666       -1.59563       -4.70002
H         -0.92046       -0.95536       -5.53210
H          2.31168        1.46123       -4.80265
H          0.89360        0.73396       -5.55544
