171
-217.84237477
P         -1.63452        0.37034       -0.42284
P          1.60140       -0.40552       -0.30471
C         -0.88638        1.28270       -1.77554
C          0.92273       -1.41804       -1.62069
C         -0.06015        0.62808       -2.68236
C          0.58683        1.38686       -3.67707
C          0.35361        2.75009       -3.74823
C         -0.49578        3.37391       -2.85928
C         -1.10966        2.63478       -1.86754
C          1.15135       -2.77222       -1.58603
C          0.58543       -3.59708       -2.53759
C         -0.22609       -3.05574       -3.51180
C         -0.46989       -1.69298       -3.56296
C          0.13407       -0.84751       -2.61301
Cl         1.42603        0.31331        2.92307
Cl        -1.72743       -0.55913        2.69195
C         -1.34936       -1.14429       -4.63053
C          1.51137        0.75375       -4.65751
H         -0.67687        4.43366       -2.93472
H         -1.77131        3.11520       -1.16551
H          1.77658       -3.18747       -0.81251
H          0.77236       -4.65825       -2.51323
H          0.84717        3.32423       -4.51423
H         -0.68161       -3.69593       -4.24839
C         -3.99019       -3.25060       -1.75020
C         -2.94014       -3.42283       -0.85647
C         -2.22512       -2.29683       -0.46886
C         -2.54681       -1.06368       -0.97700
C         -3.58242       -0.90934       -1.86526
C         -4.33383       -2.00670       -2.26780
H         -4.56143       -4.11380       -2.03512
H         -1.41586       -2.36868        0.23711
H         -3.81544        0.07739       -2.23000
C         -4.21334        2.91227        2.31310
C         -4.77753        1.79740        1.70568
C         -3.98119        1.05372        0.84370
C         -2.68089        1.42182        0.60166
C         -2.13873        2.52293        1.21767
C         -2.89384        3.28928        2.09516
H         -4.82036        3.48890        2.98523
H         -4.36136        0.16440        0.37339
H         -1.10883        2.77239        1.02768
C          4.35905       -2.76131        2.42358
C          3.01386       -3.11029        2.37055
C          2.19089       -2.40166        1.50538
C          2.69334       -1.37431        0.74695
C          4.02039       -1.03412        0.82267
C          4.88451       -1.72471        1.66042
H          5.01091       -3.30400        3.08050
H          1.14250       -2.63845        1.43713
H          4.38514       -0.21194        0.23210
C          3.93654        3.23602       -1.60916
C          2.93759        3.38670       -0.65465
C          2.20712        2.26132       -0.29772
C          2.47082        1.04739       -0.88055
C          3.46124        0.91235       -1.82197
C          4.22014        2.01253       -2.20439
H          4.52917        4.08725       -1.88640
H          1.44331        2.32439        0.45869
H          3.64871       -0.06395       -2.23594
Pd        -0.06854        0.01645        1.27768
C         -2.39344       -5.80006       -1.45676
C         -2.62993       -4.81692       -0.29504
C         -3.82105       -5.29284        0.55529
C         -1.36946       -4.80088        0.59098
H         -1.58100       -5.45376       -2.09434
H         -2.13036       -6.78929       -1.08260
H         -3.28262       -5.90605       -2.07677
H         -3.62790       -6.27688        0.98205
H         -4.00892       -4.59947        1.37494
H         -4.73007       -5.35883       -0.04165
H         -1.14235       -5.80130        0.95895
H         -0.50526       -4.44859        0.02911
H         -1.50564       -4.15493        1.45804
C         -5.06856       -1.13372       -4.51154
C         -5.53364       -1.80420       -3.20612
C         -6.56919       -0.90481       -2.50756
C         -6.21051       -3.14147       -3.56432
H         -4.35769       -1.76891       -5.03794
H         -5.91200       -0.95465       -5.17820
H         -4.58888       -0.17505       -4.31842
H         -7.44203       -0.74837       -3.14115
H         -6.90592       -1.36004       -1.57647
H         -6.14759        0.07204       -2.27316
H         -7.04814       -2.98081       -4.24299
H         -5.51011       -3.81514       -4.05780
H         -6.59949       -3.63617       -2.67454
C         -6.66167        0.15340        1.23760
C         -6.22315        1.39787        2.03325
C         -7.16934        2.55957        1.67802
C         -6.32910        1.07854        3.53558
H         -7.69182       -0.11414        1.47229
H         -6.60444        0.33965        0.16610
H         -6.03572       -0.70680        1.47444
H         -7.08500        2.81470        0.62177
H         -8.20674        2.29254        1.87889
H         -6.93798        3.45232        2.25767
H         -7.34015        0.76838        3.79889
H         -5.64659        0.27272        3.80516
H         -6.07695        1.94675        4.14330
C         -2.09531        5.62764        1.72006
C         -2.26254        4.51562        2.76938
C         -0.88610        4.13692        3.35265
C         -3.13951        5.04547        3.92062
H         -3.06366        5.93074        1.32232
H         -1.61590        6.50587        2.15210
H         -1.48702        5.28695        0.88380
H         -0.97891        3.30238        4.04733
H         -0.18664        3.84474        2.57177
H         -0.44526        4.97663        3.88949
H         -2.65011        5.87663        4.42823
H         -4.09887        5.40840        3.55289
H         -3.32425        4.26615        4.65982
C          1.17691       -3.70718        3.97586
C          2.41297       -4.23772        3.22158
C          3.42015       -4.76811        4.26000
C          2.00033       -5.39547        2.29662
H          1.44182       -2.84655        4.58958
H          0.39059       -3.39621        3.28969
H          0.75969       -4.47327        4.62897
H          4.28922       -5.21267        3.77567
H          3.76078       -3.96817        4.91720
H          2.96393       -5.53758        4.88272
H          1.54882       -6.20900        2.86413
H          1.27851       -5.06226        1.55288
H          2.86549       -5.79159        1.76526
C          6.44997        0.16722        2.16138
C          6.36015       -1.30528        1.71717
C          6.98472       -1.46173        0.31808
C          7.16134       -2.16662        2.71175
H          5.94639        0.82648        1.45515
H          5.98247        0.30355        3.13630
H          7.48821        0.49015        2.23546
H          6.47659       -0.83529       -0.41402
H          8.03708       -1.17846        0.32611
H          6.91506       -2.49501       -0.02128
H          6.76193       -2.07320        3.72145
H          7.13983       -3.21819        2.42627
H          8.20519       -1.85422        2.73998
C          1.19044        5.13506       -0.26452
C          2.64141        4.72406        0.03720
C          3.57854        5.84412       -0.45315
C          2.83095        4.55925        1.55714
H          0.49096        4.36843        0.06389
H          0.93390        6.06636        0.24004
H          1.04790        5.27996       -1.33482
H          4.62089        5.60203       -0.24656
H          3.46656        6.00823       -1.52476
H          3.35225        6.78438        0.04958
H          2.62643        5.49327        2.08011
H          2.16459        3.79840        1.96074
H          3.85332        4.25966        1.78654
C          5.21586        2.91093       -4.33316
C          5.39335        1.89597       -3.18797
C          5.48688        0.48331       -3.79754
C          6.70442        2.19002       -2.43575
H          6.02387        2.82286       -5.05927
H          4.27484        2.74574       -4.85615
H          5.21593        3.93484       -3.96185
H          5.66723       -0.26628       -3.02734
H          4.57101        0.22121       -4.32605
H          6.30875        0.42388       -4.51092
H          6.70415        3.19816       -2.02266
H          6.83990        1.49158       -1.61019
H          7.56435        2.10014       -3.09924
H         -2.11364       -1.86874       -4.91326
H          2.41720        1.34902       -4.77352
H         -0.77429       -0.90126       -5.52470
H         -1.85722       -0.23823       -4.29686
H          1.04131        0.66783       -5.63809
H          1.81263       -0.24454       -4.33741
