87
-129.17861772
P         -1.66765       -0.35998        0.32078
P          1.60807        0.33446       -0.16501
C         -1.45657        0.95609       -0.90720
C          1.21700       -0.68741       -1.58929
C         -0.63929        0.90178       -2.03435
C         -0.49018        2.06154       -2.81896
C         -1.18219        3.21001       -2.47542
C         -1.99379        3.24426       -1.36303
C         -2.11878        2.11574       -0.57575
C          1.99823       -1.76948       -1.91282
C          1.70121       -2.52387       -3.03096
C          0.61939       -2.18643       -3.81825
C         -0.18277       -1.10074       -3.50631
C          0.13028       -0.32362       -2.37326
Cl         1.57519        1.69856        2.75355
Cl        -1.02254       -0.11639        3.50396
H         -2.51644        4.14902       -1.09935
H         -2.72801        2.13806        0.31586
H          2.84772       -2.01713       -1.29852
H          2.31180       -3.37446       -3.28592
H         -1.06584        4.09098       -3.08373
H          0.38501       -2.77363       -4.68986
C         -0.44749       -4.63531       -0.63408
C         -1.25588       -3.95395       -1.53309
C         -1.62587       -2.64688       -1.23590
C         -1.18933       -2.04566       -0.07917
C         -0.42518       -2.74471        0.82663
C         -0.04012       -4.04088        0.54353
H         -0.15035       -5.64520       -0.86035
C         -1.70510       -4.61231       -2.79002
H         -2.25042       -2.09465       -1.91719
H         -0.16924       -2.28568        1.76857
H          0.56357       -4.59086        1.24684
C         -6.08862       -0.44050        1.39330
C         -5.15120       -0.37472        2.40507
C         -3.80621       -0.34520        2.09464
C         -3.40603       -0.38337        0.78104
C         -4.33724       -0.45002       -0.22999
C         -5.69685       -0.47107        0.06190
H         -7.13830       -0.46959        1.63142
H         -5.46719       -0.34798        3.43507
H         -3.06080       -0.29207        2.86929
H         -4.00693       -0.47980       -1.25552
C         -6.70501       -0.56617       -1.02881
C          5.01573       -1.54539        2.20538
C          5.12880       -0.24424        1.75664
C          4.10173        0.32600        1.02849
C          2.97126       -0.40715        0.75442
C          2.85506       -1.70084        1.20579
C          3.87908       -2.29405        1.93237
H          5.81210       -1.98912        2.77818
H          6.01393        0.32903        1.97868
H          4.17114        1.34462        0.68321
H          1.96125       -2.25963        0.99134
C          3.73236       -3.68961        2.42821
C          2.76013        4.45944       -1.68009
C          3.36868        3.33481       -2.20219
C          3.02753        2.08233       -1.72598
C          2.08545        1.96837       -0.73075
C          1.48278        3.08637       -0.20377
C          1.81429        4.35248       -0.66972
H          3.01508        5.43492       -2.05781
H          4.10200        3.43143       -2.98593
H          3.47934        1.19139       -2.13341
H          0.74283        2.97857        0.57101
C          1.12964        5.55710       -0.12750
Pd         0.12513        0.38870        1.64985
C          0.41117        2.09042       -4.00479
C         -1.34864       -0.77342       -4.37245
H         -0.16265        2.04638       -4.93119
H          1.00263        3.00700       -4.01955
H          1.10920        1.25273       -3.99839
H         -1.02349       -0.29898       -5.29909
H         -1.90479       -1.67435       -4.63517
H         -2.03978       -0.09524       -3.87035
H         -2.37047       -3.96465       -3.36245
H         -0.85268       -4.86008       -3.42410
H         -2.24419       -5.53573       -2.57375
H         -7.62815       -0.05202       -0.75747
H         -6.33264       -0.11391       -1.94921
H         -6.94899       -1.60811       -1.24068
H          3.02354       -3.73269        3.25639
H          3.36705       -4.34709        1.63783
H          4.68454       -4.08943        2.77947
H          1.76287        6.44161       -0.20891
H          0.20402        5.75289       -0.67066
H          0.87965        5.42400        0.92608
