72
-108.40518211
Cl        -1.80689        0.73660        2.71991
Cl         0.99270       -0.86667        2.73720
P          1.11789       -1.12597       -0.27997
P         -2.24570        0.12114       -0.37935
C         -3.23424       -1.48626       -0.17996
C         -3.60369       -1.67132        1.29329
C         -4.49183       -1.43839       -1.04045
C         -3.34253        1.65546       -0.10871
C         -4.14343        1.96822       -1.37972
C         -1.43299        0.45517       -2.04999
C         -1.49150       -0.68947       -3.04042
C          1.13926        0.22374       -1.49901
C         -0.01548        0.99373       -1.95881
C          0.50046        2.07831       -2.79881
C          1.94225        1.95585       -2.88842
C          2.33204        0.83359       -2.05700
C         -2.36248       -2.66379       -0.59114
H         -4.28790       -0.90562        1.64831
H         -4.09573       -2.63321        1.44642
H         -5.18716       -0.67683       -0.69171
H         -5.01709       -2.39419       -1.00455
C         -4.31360        1.48811        1.05626
H         -4.93012        2.69360       -1.16553
H         -4.61887        1.07854       -1.78866
H         -2.03822        1.27040       -2.45668
H         -2.50002       -1.08166       -3.16527
H         -0.83543       -1.49820       -2.72660
H         -1.13978       -0.37263       -4.02445
H         -0.11400        2.77673       -3.37036
H          2.61266        2.59855       -3.46233
Pd        -0.51131       -0.24000        1.18324
H          3.35065        0.48456       -1.87408
C         -2.38632        2.80132        0.18592
H         -3.52266        2.41018       -2.15825
H         -3.80058        1.17701        1.96367
H         -4.81062        2.43413        1.27575
H         -5.09585        0.76702        0.82686
H         -1.61872        2.87760       -0.58548
H         -2.91844        3.75380        0.22792
H         -1.89997        2.65487        1.14920
H         -2.71878       -1.65187        1.92947
H         -4.25661       -1.23089       -2.08318
H         -2.87454       -3.60921       -0.40381
H         -2.11173       -2.64212       -1.64843
H         -1.44075       -2.67089       -0.01229
C          2.79965       -1.22696        0.39362
C          3.27056       -2.24185        1.18931
C          4.59643       -1.93969        1.49911
C          4.88304       -0.75074        0.87558
O          3.78937       -0.30297        0.19285
H          2.71156       -3.09858        1.52687
H          5.26359       -2.52341        2.11212
H          5.83175       -0.22964        0.91172
C          0.74162       -2.72901       -1.01358
C          0.66485       -3.89330       -0.28945
C          0.36088       -4.91514       -1.18997
C          0.26518       -4.33013       -2.42878
O          0.49258       -2.98666       -2.33401
H          0.79225       -3.98815        0.77687
H          0.22656       -5.95901       -0.95792
H          0.04017       -4.84398       -3.35512
Fe         1.29153        2.12695       -0.90764
C          2.96692        2.77901        0.05849
C          2.14033        1.99626        0.95603
C          0.84466        2.63430        1.04300
C          0.85599        3.80558        0.18705
C          2.16793        3.88974       -0.42949
H          4.00651        2.56573       -0.20098
H          2.44014        1.08979        1.48544
H          0.03630        2.31174        1.70098
H          0.04385        4.52605        0.06660
H          2.50825        4.67450       -1.10940
