72
-108.39814252
Cl        -1.90539        0.12003        2.80713
Cl         0.81527       -1.36746        2.69991
P          1.23965       -0.97037       -0.31423
P         -2.22940        0.19237       -0.37888
C         -3.40095       -1.29772       -0.30419
C         -4.13056       -1.29522        1.03573
C         -4.42124       -1.25205       -1.44984
C         -3.13959        1.84384       -0.09250
C         -4.49666        1.82203       -0.78762
C         -1.42956        0.39300       -2.07232
C         -1.32402       -0.85548       -2.93041
C          1.15579        0.36452       -1.54732
C         -0.06132        1.05295       -1.98700
C          0.37536        2.19858       -2.78721
C          1.82402        2.18064       -2.86253
C          2.30708        1.01505       -2.14717
C         -2.56164       -2.57049       -0.39602
H         -3.42599       -1.30649        1.86661
H         -4.77343       -0.42351        1.14299
H         -5.27750       -0.62615       -1.20377
H         -4.81529       -2.24848       -1.65651
C         -3.32515        2.10976        1.39613
H         -4.94588        2.81657       -0.78169
H         -5.19314        1.15793       -0.27907
H         -2.10927        1.08686       -2.58045
H         -2.27466       -1.36255       -3.08129
H         -0.62873       -1.56290       -2.48735
H         -0.92735       -0.61306       -3.91829
H         -0.28241        2.87859       -3.33152
H          2.44276        2.88433       -3.42386
Pd        -0.52465       -0.44767        1.13104
H          3.34755        0.72628       -1.98593
C         -2.29671        2.96436       -0.69698
H         -4.40248        1.50936       -1.82793
H         -2.36380        2.19961        1.89952
H         -3.87018        3.04069        1.55971
H         -3.88249        1.31124        1.88241
H         -2.30890        2.93960       -1.78628
H         -2.67310        3.94302       -0.39392
H         -1.26455        2.88572       -0.36937
H         -4.76413       -2.17876        1.12946
H         -3.99066       -0.86440       -2.37043
H         -3.19740       -3.45598       -0.34365
H         -2.00376       -2.62844       -1.32722
H         -1.85298       -2.63491        0.42924
C          2.93716       -1.03443        0.31426
C          3.41690       -2.02397        1.13538
C          4.75295       -1.72447        1.40177
C          5.03569       -0.56241        0.72729
O          3.93021       -0.12818        0.05449
H          2.85593       -2.86513        1.50890
H          5.42978       -2.29351        2.01796
H          5.99064       -0.05158        0.72012
C          0.84108       -2.61074       -0.94018
C          0.56717       -3.64765       -0.08408
C          0.29978       -4.76852       -0.87126
C          0.42402       -4.36621       -2.17893
O          0.75417       -3.04187       -2.23603
H          0.55518       -3.58456        0.99268
H          0.04628       -5.75572       -0.52107
H          0.28308       -4.99427       -3.04986
Fe         1.22552        2.24494       -0.90148
C          2.86925        2.63707        0.23600
C          1.89038        1.93110        1.03772
C          0.67618        2.71743        1.04071
C          0.90826        3.91483        0.25244
C          2.27619        3.87728       -0.23105
H          3.89371        2.30379        0.05486
H          2.04020        0.98556        1.56270
H         -0.22226        2.47459        1.60973
H          0.20188        4.73507        0.10503
H          2.76955        4.64157       -0.83581
