171
-217.83594562
P         -1.49062        0.20293       -0.31684
P          1.65253       -0.71199        0.27360
C         -0.55481        0.84564       -1.72294
C          0.91727       -1.85832       -0.92001
C          0.21152       -0.04084       -2.46899
C          0.95763        0.44262       -3.56112
C          0.88020        1.78680       -3.88561
C          0.12315        2.65655       -3.12905
C         -0.58600        2.18131       -2.04390
C          0.96767       -3.18007       -0.54444
C          0.38045       -4.15195       -1.33160
C         -0.28244       -3.78526       -2.48305
C         -0.36597       -2.45800       -2.86819
C          0.26470       -1.47291       -2.08540
Cl         0.91010       -0.64413        3.45869
Cl        -2.13322       -1.32006        2.65239
C         -1.14627       -2.10872       -4.08700
C          1.81681       -0.46947       -4.36609
H          0.09185        3.70492       -3.37736
H         -1.14920        2.86334       -1.43259
H          1.46512       -3.44814        0.37613
H          0.43029       -5.18821       -1.03967
H          1.42774        2.15044       -4.73838
H         -0.75456       -4.53486       -3.09545
C         -4.40767       -2.90955       -1.84692
C         -3.57581       -3.24149       -0.78518
C         -2.69615       -2.27238       -0.32223
C         -2.65573       -1.02926       -0.90180
C         -3.48382       -0.71925       -1.95210
C         -4.37935       -1.65752       -2.45035
H         -5.10126       -3.64870       -2.20089
H         -2.04055       -2.47946        0.50387
H         -3.42872        0.26230       -2.38934
C         -3.92965        3.59312        1.51901
C         -3.93683        3.41439        0.14113
C         -3.19851        2.36097       -0.38248
C         -2.46243        1.53464        0.43274
C         -2.49286        1.71762        1.79420
C         -3.22303        2.74887        2.36575
H         -4.49103        4.40333        1.94247
H         -3.19097        2.19413       -1.44558
H         -1.96427        1.03663        2.43408
C          5.68469       -2.42729        1.41417
C          4.84898       -1.98988        2.43438
C          3.60618       -1.48347        2.08014
C          3.22421       -1.42767        0.76463
C          4.05937       -1.87089       -0.23159
C          5.31475       -2.38100        0.07577
H          6.65480       -2.81252        1.66947
H          2.91658       -1.13341        2.82559
H          3.71917       -1.81647       -1.25193
C          2.71864        3.59511       -0.66983
C          1.72868        3.35429        0.27527
C          1.37549        2.03409        0.52136
C          1.99296        1.00554       -0.15254
C          2.97942        1.26413       -1.07245
C          3.36270        2.57037       -1.35121
H          3.02121        4.60599       -0.86777
H          0.63249        1.80974        1.26589
H          3.46226        0.43446       -1.55787
Pd        -0.29785       -0.64154        1.55760
C         -5.08085       -4.82212        0.44399
C         -3.66858       -4.63047       -0.13791
C         -2.64489       -4.79418        1.00348
C         -3.39194       -5.71121       -1.19860
H         -5.29887       -4.05154        1.18322
H         -5.84085       -4.76375       -0.33431
H         -5.17439       -5.79302        0.93015
H         -2.82115       -4.06741        1.79619
H         -2.71421       -5.78750        1.44633
H         -1.62631       -4.66585        0.63873
H         -2.39867       -5.58404       -1.62695
H         -3.44442       -6.70833       -0.76181
H         -4.11567       -5.66506       -2.01137
C         -4.57189       -0.59258       -4.73026
C         -5.34512       -1.26383       -3.57798
C         -6.38287       -0.27826       -3.01327
C         -6.08302       -2.49078       -4.14815
H         -4.07304        0.31862       -4.40339
H         -3.81622       -1.26559       -5.13327
H         -5.24575       -0.32318       -5.54340
H         -5.89765        0.61294       -2.61797
H         -7.08743        0.03440       -3.78372
H         -6.94827       -0.73642       -2.20201
H         -5.37624       -3.23721       -4.51057
H         -6.72052       -2.95398       -3.39554
H         -6.72158       -2.20394       -4.98361
C         -5.53448        5.38865       -0.04549
C         -4.68813        4.35466       -0.81272
C         -5.62779        3.53147       -1.71396
C         -3.66512        5.10591       -1.68444
H         -4.90654        6.03245        0.57007
H         -6.08175        6.02949       -0.73675
H         -6.26391        4.89704        0.59802
H         -6.21358        4.18153       -2.36365
H         -5.06761        2.84852       -2.35090
H         -6.31984        2.94204       -1.11281
H         -4.16423        5.79122       -2.36924
H         -2.98235        5.68596       -1.06392
H         -3.07035        4.41358       -2.27938
C         -3.81361        1.62094        4.52375
C         -3.22962        2.89949        3.89369
C         -4.07927        4.10239        4.34540
C         -1.78729        3.10679        4.39123
H         -3.85117        1.70272        5.60975
H         -4.82590        1.44175        4.16236
H         -3.21203        0.74700        4.27667
H         -3.69235        5.03319        3.93090
H         -5.11738        3.98883        4.03370
H         -4.06982        4.19603        5.43127
H         -1.76119        3.22366        5.47436
H         -1.15290        2.25948        4.13360
H         -1.35351        4.00122        3.94553
C          6.58279       -1.21548        4.07165
C          5.31377       -2.06926        3.89543
C          5.61859       -3.53544        4.25333
C          4.23453       -1.54560        4.86383
H          6.38857       -0.17785        3.80067
H          6.92637       -1.23596        5.10574
H          7.39510       -1.57878        3.44323
H          4.73504       -4.15734        4.11076
H          6.41562       -3.93844        3.62962
H          5.93124       -3.62623        5.29344
H          3.31705       -2.12784        4.78123
H          4.57563       -1.61224        5.89675
H          3.99872       -0.50110        4.66143
C          6.66411       -4.32968       -0.74802
C          6.28806       -2.85973       -1.01037
C          7.55336       -1.98341       -0.97578
C          5.66334       -2.76100       -2.41665
H          5.77417       -4.95879       -0.74201
H          7.33683       -4.70373       -1.51964
H          7.16324       -4.44664        0.21310
H          7.30060       -0.93626       -1.14174
H          8.05853       -2.05667       -0.01334
H          8.25989       -2.28700       -1.74810
H          6.36110       -3.11473       -3.17553
H          4.76134       -3.36862       -2.48846
H          5.40637       -1.73071       -2.66183
C         -0.43384        4.50802        0.82726
C          1.07997        4.48145        1.09363
C          1.65891        5.86187        0.72836
C          1.33964        4.22586        2.59015
H         -0.92511        5.27555        1.42499
H         -0.63691        4.71904       -0.22185
H         -0.88907        3.55173        1.07419
H          1.48285        6.09573       -0.32150
H          1.19061        6.64616        1.32302
H          2.73146        5.90054        0.91787
H          2.40963        4.18642        2.79302
H          0.90906        5.01785        3.20249
H          0.90557        3.28022        2.91175
C          4.02280        3.86878       -3.40080
C          4.51456        2.89705       -2.31261
C          5.05817        1.62862       -2.99850
C          5.66084        3.54833       -1.51729
H          3.19678        3.43382       -3.96098
H          3.67710        4.80760       -2.97018
H          4.82134        4.10084       -4.10529
H          5.46460        0.93036       -2.26712
H          4.27500        1.12290       -3.56117
H          5.85863        1.87726       -3.69514
H          6.01123        2.87974       -0.73106
H          6.50536        3.77837       -2.16665
H          5.33774        4.47655       -1.04726
H         -1.31336       -1.03348       -4.16194
H          2.25790       -1.24732       -3.74062
H         -2.12356       -2.59345       -4.06650
H         -0.62982       -2.43691       -4.99007
H          2.63377        0.07398       -4.84260
H          1.23993       -0.95492       -5.15388
