105
-153.06987324
Cl         0.05141        1.82116        3.06542
Pd        -0.63173        1.11618        1.04046
P         -1.25336        0.51036       -1.13500
N         -0.94246       -1.04492       -1.89212
C          0.07858       -1.95960       -1.61775
C          0.31946       -2.46952       -0.31451
C          1.33585       -3.42810       -0.12489
C          1.55135       -3.99795        1.25735
C          2.42781       -5.25936        1.30033
C          3.64961       -5.10974        0.38962
C          3.21476       -4.87157       -1.06404
C          2.10217       -3.86358       -1.20931
C          1.82629       -3.37308       -2.47911
C          0.83248       -2.45230       -2.68291
H          0.63482       -2.08060       -3.67317
H          2.41179       -3.72452       -3.31186
H          4.07048       -4.54274       -1.66761
H          4.25618       -4.26239        0.73296
H          2.73619       -5.48616        2.33070
H          2.00068       -3.21927        1.88424
C         -0.61718       -2.18190        0.79783
C         -0.13660       -1.60288        2.00636
C         -1.00830       -1.51985        3.09735
C         -2.30714       -1.94667        2.99756
C         -2.79899       -2.50096        1.82209
C         -4.23387       -2.97463        1.80950
C         -4.74325       -3.45616        0.43997
C         -3.65210       -4.21482       -0.32016
C         -2.42507       -3.31799       -0.53572
C         -1.94865       -2.63486        0.72219
H         -1.60106       -3.90421       -0.96128
H         -4.03366       -4.59610       -1.27797
H         -5.06286       -2.59431       -0.15843
H         -4.87169       -2.16510        2.18666
H         -2.96687       -1.85542        3.84386
H         -0.65501       -1.07226        4.00969
N          1.13979       -1.03029        2.10775
P          1.54653        0.17698        0.88850
C          2.65465       -0.40383       -0.38742
C          2.51219        0.08555       -1.66103
C          3.40676       -0.29302       -2.64501
C          4.45336       -1.15709       -2.35060
C          4.60178       -1.60850       -1.04549
C          3.70327       -1.23000       -0.06398
H          3.81396       -1.57098        0.95303
H          5.42425       -2.25943       -0.80310
C          5.42061       -1.56278       -3.40696
H          3.29426        0.07931       -3.64880
H          1.70000        0.75784       -1.87593
C          2.39637        1.60357        1.57645
C          3.20839        1.47283        2.67705
C          3.86606        2.58192        3.17753
C          3.72323        3.82284        2.57069
C          2.90112        3.93160        1.45711
C          2.24498        2.82203        0.95682
H          1.60859        2.90224        0.08912
H          2.77449        4.89133        0.98597
C          4.40518        5.02315        3.12887
H          4.49410        2.49015        4.04716
H          3.32769        0.50652        3.13941
H          1.33440       -0.57977        2.99253
H         -1.22392       -0.92807       -2.85703
C         -0.52722        1.85443       -2.07715
C         -0.56484        3.12604       -1.55548
C          0.02648        4.17089       -2.23973
C          0.64625        3.95108       -3.46226
C          0.66296        2.66300       -3.98051
C          0.07088        1.61975       -3.29270
H          0.09415        0.61890       -3.69058
H          1.14911        2.48084       -4.92374
C          1.31394        5.06883       -4.18494
H          0.00959        5.16520       -1.82711
H         -1.07106        3.29473       -0.61826
C         -3.03765        0.69821       -1.18941
C         -3.61645        1.47570       -2.16428
C         -4.99151        1.62006       -2.20249
C         -5.79407        0.99298       -1.25887
C         -5.19076        0.20384       -0.28972
C         -3.81633        0.05568       -0.25929
H         -3.34154       -0.54787        0.49580
H         -5.80450       -0.28733        0.44580
C         -7.27595        1.13141       -1.30491
H         -5.44979        2.22561       -2.96562
H         -2.99109        1.96978       -2.89043
Cl        -2.51143        2.34677        1.11331
H          2.88764       -5.81784       -1.51125
H          1.83667       -6.12409        0.97356
H          4.30345       -5.99018        0.46484
H          0.57293       -4.20761        1.70780
H         -3.35741       -5.10144        0.25516
H         -2.65733       -2.54992       -1.28234
H         -4.33247       -3.78569        2.54098
H         -5.64113       -4.07963        0.55504
H          4.94202       -1.59432       -4.38682
H          6.25322       -0.86011       -3.46076
H          5.82854       -2.55462       -3.20679
H          3.77294        5.51824        3.86713
H          5.34310        4.75275        3.61593
H          4.63596        5.74541        2.34456
H          0.81046        6.01752       -3.99370
H          2.35283        5.16883       -3.86757
H          1.30585        4.90183       -5.26296
H         -7.72590        0.30112       -1.85098
H         -7.69981        1.14309       -0.29974
H         -7.57082        2.05859       -1.79826
