105
-153.06166388
Cl         3.21136        0.97860       -1.32121
Pd         0.96433        0.91231       -1.15220
P         -1.38035        0.75089       -1.09787
N         -1.41287       -0.77612       -1.97464
C         -0.46255       -1.74682       -1.62783
C         -0.32467       -2.23731       -0.30092
C          0.67767       -3.18330       -0.00674
C          0.78360       -3.72393        1.39912
C          2.07187       -4.51259        1.67965
C          2.37349       -5.49187        0.54246
C          2.52812       -4.75157       -0.79496
C          1.50145       -3.66895       -1.02525
C          1.35401       -3.17283       -2.31486
C          0.40067       -2.23459       -2.61283
H          0.31245       -1.85261       -3.61472
H          2.00365       -3.54100       -3.09085
H          3.52754       -4.30832       -0.85856
H          3.27243       -6.08318        0.76768
H          2.90997       -3.81339        1.78828
H          0.70676       -2.88848        2.10416
C         -1.38999       -1.97175        0.69736
C         -1.10152       -1.31980        1.92096
C         -2.04810       -1.35390        2.94401
C         -3.27299       -1.93749        2.75367
C         -3.60599       -2.52533        1.54008
C         -4.98555       -3.11440        1.38896
C         -5.37107       -3.40889       -0.06798
C         -4.22534       -4.12092       -0.79273
C         -2.95280       -3.25910       -0.79405
C         -2.65735       -2.56427        0.51461
H         -2.08616       -3.87335       -1.06927
H         -4.51911       -4.38559       -1.81830
H         -5.59623       -2.46631       -0.58281
H         -5.71438       -2.43180        1.84471
H         -4.00190       -1.92801        3.54636
H         -1.81622       -0.87499        3.87939
N          0.09124       -0.64366        2.15719
P          1.20798        0.20384        1.09148
C          2.75587       -0.70264        1.19106
C          3.28370       -1.38387        0.12146
C          4.49152       -2.04427        0.25108
C          5.16264       -2.05865        1.46529
C          4.61154       -1.37203        2.53828
C          3.41258       -0.69507        2.39924
H          2.98692       -0.15337        3.22974
H          5.13000       -1.36397        3.48174
C          6.46658       -2.76458        1.59920
H          4.92808       -2.54408       -0.59640
H          2.75284       -1.38418       -0.81737
C          1.54135        1.80936        1.84417
C          0.85542        2.20281        2.96992
C          1.10553        3.43841        3.53789
C          2.05657        4.28790        2.99001
C          2.73985        3.87668        1.85427
C          2.48369        2.64208        1.28954
H          3.01228        2.32262        0.40740
H          3.47153        4.53132        1.41243
C          2.30778        5.63040        3.58345
H          0.56002        3.75188        4.41163
H          0.11547        1.54922        3.39972
H          0.38381       -0.49888        3.11580
H         -1.37839       -0.49069       -2.94473
C         -1.69393        2.15497       -2.17414
C         -1.17693        3.38407       -1.83828
C         -1.41523        4.47474       -2.65469
C         -2.17319        4.34001       -3.81005
C         -2.70473        3.09490       -4.11854
C         -2.46455        2.00465       -3.30187
H         -2.88261        1.03936       -3.53699
H         -3.30795        2.98426       -5.00342
C         -2.44663        5.51830       -4.67857
H         -1.01119        5.43922       -2.39854
H         -0.58735        3.48586       -0.94032
C         -2.49388        0.93669        0.28114
C         -2.05761        1.63162        1.38189
C         -2.92247        1.84887        2.43906
C         -4.22795        1.37702        2.38993
C         -4.65692        0.70852        1.25033
C         -3.78979        0.48995        0.19493
H         -4.11365       -0.02798       -0.69385
H         -5.67242        0.35520        1.19674
C         -5.16197        1.61247        3.52497
H         -2.58598        2.38341        3.31077
H         -1.04126        1.98795        1.41070
Cl         0.80250        1.27783       -3.36835
H          2.47620       -5.46519       -1.62735
H          2.00497       -5.04091        2.64122
H          1.55508       -6.21873        0.46455
H         -0.09015       -4.35643        1.59547
H         -4.01801       -5.07477       -0.29155
H         -3.03018       -2.49549       -1.57673
H         -5.03808       -4.03690        1.97942
H         -6.29526       -4.00192       -0.11854
H          7.28882       -2.12213        1.28136
H          6.65081       -3.06128        2.63267
H          6.48819       -3.66747        0.98714
H          2.13980        5.62213        4.66133
H          3.33636        5.95069        3.41167
H          1.64488        6.37759        3.14502
H         -2.58375        5.21761       -5.71818
H         -3.35053        6.03651       -4.35552
H         -1.62057        6.23011       -4.64707
H         -4.62403        1.66470        4.47263
H         -5.70436        2.54960        3.39283
H         -5.89385        0.80734        3.60491
