171
-217.84244420
P         -1.63672        0.39633       -0.46087
P          1.59261       -0.37341       -0.40334
C         -0.91710        1.36392       -1.79044
C          0.92237       -1.32318       -1.76726
C         -0.07956        0.76464       -2.72467
C          0.56269        1.57909       -3.67757
C          0.31150        2.94084       -3.68507
C         -0.55078        3.51007       -2.77244
C         -1.15668        2.71637       -1.81862
C          1.17357       -2.67277       -1.80740
C          0.62771       -3.44979       -2.81027
C         -0.18922       -2.86747       -3.75617
C         -0.45555       -1.50824       -3.73077
C          0.13021       -0.70988       -2.73036
Cl         1.49558        0.51347        2.79299
Cl        -1.60746       -0.48453        2.75367
C         -1.32846       -0.90652       -4.77532
C          1.50845        1.00947       -4.67671
H         -0.74517        4.56987       -2.79736
H         -1.82165        3.15534       -1.09277
H          1.79963       -3.11977       -1.05179
H          0.83537       -4.50664       -2.84937
H          0.80219        3.55743       -4.41928
H         -0.62810       -3.47183       -4.53204
C         -3.90856       -3.33962       -1.61530
C         -2.87230       -3.43490       -0.69366
C         -2.16239       -2.27975       -0.39568
C         -2.49408       -1.08484       -0.98388
C         -3.52724       -1.00378       -1.88458
C         -4.25973       -2.13673       -2.21888
H         -4.46389       -4.22403       -1.86044
H         -1.35214       -2.30667        0.31266
H         -3.77515       -0.04599       -2.31103
C         -4.24591        2.79951        2.36697
C         -4.80478        1.71735        1.69802
C         -3.99887        1.01409        0.81123
C         -2.69687        1.39429        0.59991
C         -2.16268        2.46760        1.26931
C         -2.92527        3.18830        2.17805
H         -4.85734        3.33885        3.06553
H         -4.37295        0.14771        0.29544
H         -1.13198        2.72882        1.09937
C          4.21748       -2.87520        2.32249
C          2.85560       -3.14909        2.26987
C          2.07639       -2.39848        1.40027
C          2.63775       -1.40331        0.63920
C          3.98286       -1.14022        0.71014
C          4.80472       -1.88008        1.55046
H          4.84189       -3.43808        2.99045
H          1.01551       -2.57308        1.33771
H          4.38333       -0.33838        0.11607
C          3.95341        3.30459       -1.55758
C          2.95247        3.41918       -0.60025
C          2.22321        2.28064       -0.28658
C          2.48905        1.08852       -0.91159
C          3.48114        0.98904       -1.85564
C          4.23899        2.10376       -2.19673
H          4.54430        4.16654       -1.80366
H          1.45691        2.31664        0.46895
H          3.66633        0.03022       -2.30927
Pd        -0.04224        0.03237        1.21718
C         -3.53571       -5.85685       -0.26979
C         -2.49416       -4.75311       -0.00265
C         -2.40807       -4.53169        1.52101
C         -1.13119       -5.22196       -0.53593
H         -3.58525       -6.10484       -1.32976
H         -3.27735       -6.76962        0.26700
H         -4.52697       -5.54655        0.06043
H         -2.17755       -5.46297        2.03806
H         -1.63286       -3.81206        1.77913
H         -3.35435       -4.15530        1.90878
H         -1.18195       -5.40413       -1.60904
H         -0.36572       -4.46745       -0.36137
H         -0.81525       -6.14517       -0.05056
C         -4.96409       -1.47101       -4.53838
C         -5.44971       -2.01507       -3.18351
C         -6.48835       -1.05069       -2.58241
C         -6.13245       -3.37549       -3.42531
H         -4.24342       -2.15286       -4.98802
H         -5.79597       -1.35795       -5.23342
H         -4.48850       -0.49734       -4.42793
H         -6.83906       -1.41824       -1.61838
H         -6.06539       -0.05812       -2.43167
H         -7.35256       -0.94866       -3.23854
H         -6.52394       -3.78945       -2.49624
H         -6.96894       -3.27030       -4.11615
H         -5.43553       -4.09266       -3.85869
C         -7.19388        2.49314        1.73353
C         -6.25309        1.30127        1.99114
C         -6.36017        0.86016        3.46192
C         -6.69887        0.13050        1.09387
H         -7.10416        2.83800        0.70356
H         -8.23301        2.21343        1.90626
H         -6.96336        3.33189        2.38908
H         -7.37383        0.53923        3.70118
H         -5.68504        0.02851        3.66294
H         -6.09797        1.67338        4.13777
H         -7.73426       -0.14211        1.29773
H         -6.62904        0.40204        0.04121
H         -6.08622       -0.75433        1.26585
C         -2.08196        5.52894        1.93204
C         -2.29382        4.37239        2.92362
C         -0.93842        3.94339        3.52158
C         -3.19198        4.86302        4.07562
H         -1.60521        6.37995        2.41811
H         -1.45241        5.21900        1.09959
H         -3.03422        5.86286        1.52038
H         -1.06194        3.07898        4.17362
H         -0.22445        3.67524        2.74493
H         -0.49759        4.74942        4.10774
H         -2.70638        5.66684        4.62886
H         -4.13891        5.25093        3.70113
H         -3.40145        4.05566        4.77717
C          1.50229       -5.25997        2.27528
C          2.18016       -4.20030        3.16151
C          1.12163       -3.50586        4.04043
C          3.19407       -4.90653        4.08132
H          1.02518       -6.03015        2.88107
H          0.73690       -4.81073        1.64573
H          2.23075       -5.74294        1.62429
H          1.58060       -2.73231        4.65557
H          0.35054       -3.03169        3.43457
H          0.63272       -4.22027        4.70229
H          2.69699       -5.64748        4.70734
H          3.95674       -5.42436        3.49998
H          3.68639       -4.19360        4.74245
C          6.75960       -0.49470        0.69268
C          6.30950       -1.60010        1.66905
C          7.09656       -2.88334        1.34513
C          6.62529       -1.14294        3.10459
H          6.25499        0.44758        0.90575
H          7.83204       -0.31862        0.77473
H          6.54867       -0.77476       -0.33929
H          6.86164       -3.23513        0.34070
H          8.17056       -2.70559        1.39789
H          6.85773       -3.68347        2.04462
H          6.05841       -0.24649        3.35527
H          6.36868       -1.91390        3.83023
H          7.68519       -0.91606        3.21823
C          2.81681        4.51360        1.65062
C          2.64573        4.73078        0.13498
C          1.19710        5.14901       -0.16874
C          3.58650        5.86839       -0.30512
H          2.60925        5.43008        2.20261
H          2.14263        3.74251        2.02046
H          3.83530        4.20243        1.88168
H          0.49540        4.37153        0.12864
H          0.93370        6.06372        0.36192
H          1.06549        5.32700       -1.23546
H          3.35510        6.78946        0.22977
H          4.62704        5.61892       -0.09814
H          3.48423        6.07188       -1.37093
C          5.22477        3.08451       -4.29469
C          5.40842        2.02737       -3.18912
C          5.50202        0.63884       -3.85165
C          6.72251        2.29650       -2.43312
H          5.22293        4.09362       -3.88488
H          6.03128        3.02645       -5.02548
H          4.28328        2.93683       -4.82183
H          5.68667       -0.13859       -3.11055
H          4.58449        0.39507       -4.38614
H          6.32122        0.60774       -4.56989
H          6.72028        3.28679       -1.97890
H          6.86621        1.56525       -1.63818
H          7.57882        2.23792       -3.10475
H         -2.04207       -1.63691       -5.15721
H          2.42923        1.59179       -4.70951
H         -0.73798       -0.54837       -5.61925
H         -1.89489       -0.06361       -4.37670
H          1.07272        1.01830       -5.67672
H          1.77900       -0.01883       -4.43371
