171
-217.83523292
P         -1.69824        0.64769        0.21731
P          1.48132       -0.23002       -0.21038
C         -0.86490        1.86309       -0.83019
C          0.68070       -0.77972       -1.73352
C         -0.15616        1.54652       -1.98293
C          0.52994        2.57226       -2.66001
C          0.46213        3.86804       -2.17682
C         -0.24684        4.16435       -1.03268
C         -0.90193        3.15344       -0.35637
C          0.80755       -2.07552       -2.17250
C          0.19284       -2.47832       -3.34158
C         -0.56904       -1.58072       -4.05931
C         -0.73218       -0.27598       -3.62453
C         -0.07081        0.14111       -2.45323
Cl         1.92598        0.98131        2.87261
Cl        -1.11871        0.24184        3.50170
C         -1.58741        0.66297       -4.40158
C          1.34445        2.29607       -3.87534
H         -0.28301        5.17566       -0.66191
H         -1.44177        3.36586        0.55470
H          1.37564       -2.78278       -1.59405
H          0.30188       -3.49259       -3.68917
H          0.98477        4.64824       -2.70415
H         -1.04645       -1.89119       -4.97302
C         -2.78328       -3.44215       -1.40732
C         -3.45074       -2.32089       -1.88181
C         -3.07080       -1.08188       -1.38116
C         -2.07745       -0.98412       -0.43810
C         -1.44426       -2.10873        0.03910
C         -1.77879       -3.36542       -0.45107
H         -3.06671       -4.40810       -1.78279
H         -3.55673       -0.18125       -1.71330
H         -0.68142       -2.00014        0.78858
C         -5.64057        2.53014        1.42610
C         -4.89870        1.87629        2.40247
C         -3.68810        1.31006        2.02714
C         -3.24830        1.39568        0.73141
C         -3.99376        2.04581       -0.22125
C         -5.20896        2.63151        0.10861
H         -6.57626        2.97463        1.70866
H         -3.06162        0.81529        2.74589
H         -3.61594        2.10889       -1.22856
C          3.82729       -3.71221        1.57512
C          2.97659       -3.00086        2.41105
C          2.25618       -1.95177        1.85957
C          2.39273       -1.60922        0.53471
C          3.27322       -2.30170       -0.26140
C          3.99409       -3.37982        0.23729
H          4.38282       -4.54186        1.97004
H          1.60411       -1.38221        2.49431
H          3.39494       -1.99648       -1.28538
C          4.48819        2.96998       -1.32011
C          3.64490        3.19977       -0.24059
C          2.74165        2.20246        0.10035
C          2.68053        1.03799       -0.62201
C          3.50742        0.83624       -1.69985
C          4.43469        1.80277       -2.07181
H          5.21699        3.71766       -1.57250
H          2.08507        2.32280        0.94233
H          3.40991       -0.07553       -2.26243
Pd         0.13212        0.42532        1.63883
C         -5.66814       -3.41048       -2.31373
C         -4.58937       -2.47985       -2.89945
C         -4.03301       -3.08562       -4.19964
C         -5.24791       -1.12620       -3.22927
H         -5.27142       -4.40600       -2.11869
H         -6.05024       -3.01196       -1.37404
H         -6.50705       -3.51621       -3.00140
H         -3.28212       -2.43003       -4.63772
H         -3.56805       -4.05396       -4.01805
H         -4.82530       -3.22663       -4.93462
H         -6.06065       -1.25426       -3.94405
H         -5.66520       -0.66838       -2.33275
H         -4.52946       -0.43503       -3.66849
C         -2.17864       -5.48957        0.80938
C         -1.12188       -4.65489        0.06400
C          0.03545       -4.35323        1.03133
C         -0.55874       -5.46737       -1.11738
H         -1.74402       -6.40768        1.20435
H         -2.59440       -4.92587        1.64437
H         -3.00057       -5.76469        0.14925
H          0.49974       -5.27475        1.38209
H          0.80716       -3.76223        0.54127
H         -0.31890       -3.80607        1.90387
H          0.18838       -4.89126       -1.66102
H         -0.08289       -6.38306       -0.76669
H         -1.34224       -5.74904       -1.81939
C         -6.78008        1.08480        3.86020
C         -5.42057        1.80742        3.84497
C         -5.58396        3.23614        4.39509
C         -4.45011        1.03951        4.76437
H         -7.16637        1.00182        4.87593
H         -7.51988        1.61902        3.26524
H         -6.68517        0.07884        3.45173
H         -5.93407        3.21919        5.42704
H         -4.63334        3.76853        4.36970
H         -6.30292        3.80703        3.80868
H         -4.31127        0.01491        4.42018
H         -3.47544        1.52560        4.80047
H         -4.83435        0.99610        5.78328
C         -6.33138        2.39583       -2.12226
C         -6.00456        3.37114       -0.97614
C         -5.15589        4.53763       -1.51593
C         -7.32687        3.93980       -0.42682
H         -6.91526        2.88850       -2.89952
H         -5.42363        2.00921       -2.58397
H         -6.90830        1.54823       -1.75297
H         -4.22836        4.17944       -1.96143
H         -5.69880        5.09521       -2.27888
H         -4.89583        5.22771       -0.71350
H         -7.88036        4.45691       -1.21057
H         -7.96542        3.14498       -0.04169
H         -7.14357        4.65602        0.37392
C          3.33828       -2.04517        4.69481
C          2.85572       -3.28386        3.91636
C          3.71046       -4.49384        4.33876
C          1.38796       -3.57589        4.27895
H          4.36994       -1.80677        4.43741
H          2.72787       -1.17233        4.46584
H          3.28780       -2.21471        5.77007
H          3.60759       -4.68566        5.40676
H          3.40128       -5.39533        3.80996
H          4.76685       -4.31830        4.13646
H          1.28135       -3.75825        5.34807
H          0.73928       -2.73984        4.02039
H          1.02960       -4.45989        3.75312
C          4.39170       -5.64903       -0.73938
C          4.93315       -4.21084       -0.64814
C          6.34491       -4.22117       -0.03296
C          5.03101       -3.63251       -2.07384
H          3.38566       -5.65502       -1.15900
H          5.02693       -6.26623       -1.37446
H          4.34597       -6.11654        0.24364
H          6.72665       -3.20546        0.06934
H          6.34590       -4.68048        0.95467
H          7.03894       -4.78093       -0.65974
H          4.05888       -3.63211       -2.56667
H          5.41146       -2.61145       -2.05546
H          5.70924       -4.22628       -2.68650
C          3.50884        5.69901       -0.40868
C          3.73974        4.51381        0.54667
C          5.13656        4.62191        1.18389
C          2.68315        4.58061        1.66771
H          2.52961        5.62674       -0.88070
H          3.55518        6.64676        0.12740
H          4.25944        5.72555       -1.19762
H          5.91808        4.62736        0.42495
H          5.23002        5.53815        1.76657
H          5.32133        3.77820        1.84855
H          2.75032        5.52501        2.20737
H          1.67496        4.50328        1.26136
H          2.82603        3.77783        2.39070
C          5.00715        0.37500       -4.09796
C          5.42646        1.57271       -3.22181
C          6.81467        1.28752       -2.62325
C          5.49993        2.82094       -4.12326
H          5.03005       -0.55619       -3.53309
H          4.00149        0.51352       -4.49422
H          5.68471        0.25837       -4.94367
H          7.15895        2.12660       -2.01919
H          6.78404        0.40573       -1.98328
H          7.55080        1.11164       -3.40745
H          4.51778        3.07027       -4.52282
H          5.87291        3.68786       -3.58005
H          6.16985        2.65077       -4.96600
H         -1.02041        1.13192       -5.20669
H          2.32166        2.77364       -3.79793
H         -1.98730        1.45276       -3.76362
H         -2.43461        0.14211       -4.84998
H          0.85345        2.68058       -4.77039
H          1.51151        1.22716       -4.01269
