87
-129.18089683
P         -1.55278       -0.28977       -0.37901
P          1.67247        0.33459        0.34759
C         -1.14502        1.00462       -1.55602
C          1.53313       -0.70311       -1.13227
C         -0.03122        0.82431       -2.36507
C          0.29444        1.82000       -3.30761
C         -0.52247        2.93364       -3.41708
C         -1.63105        3.08755       -2.60999
C         -1.94022        2.11776       -1.67648
C          2.20832       -1.89656       -1.01807
C          2.13530       -2.84274       -2.02229
C          1.36290       -2.59385       -3.13522
C          0.65901       -1.40913       -3.26507
C          0.75510       -0.43175       -2.25582
Cl         0.94227       -0.58884        3.39816
Cl        -1.67892       -2.11386        2.27179
H         -2.25267        3.96268       -2.70521
H         -2.80925        2.22323       -1.04879
H          2.78608       -2.09166       -0.12653
H          2.66751       -3.77497       -1.92756
H         -0.27794        3.68930       -4.14416
H          1.28717       -3.33387       -3.91389
C         -2.55952       -4.04725       -2.72625
C         -1.66708       -4.13369       -1.66652
C         -1.37998       -2.98098       -0.94618
C         -1.97320       -1.78518       -1.27675
C         -2.86302       -1.70874       -2.32238
C         -3.15982       -2.84627       -3.05019
H         -2.77916       -4.93176       -3.29951
C         -0.98990       -5.41652       -1.33540
H         -0.68194       -3.02259       -0.12743
H         -3.30864       -0.75832       -2.57146
H         -3.85173       -2.79270       -3.87464
C         -5.09332        1.03422        2.16613
C         -5.17346       -0.13594        1.43719
C         -4.10579       -0.53664        0.65634
C         -2.96768        0.23342        0.61016
C         -2.88503        1.39627        1.33905
C         -3.94985        1.82004        2.12333
H         -5.92137        1.34457        2.78032
H         -6.06483       -0.74005        1.48116
H         -4.15014       -1.45384        0.09221
H         -1.98617        1.98548        1.29736
C         -3.83959        3.07143        2.92129
C          6.04759        0.24534        1.59807
C          5.69695        0.57290        0.30298
C          4.36422        0.59963       -0.06530
C          3.39553        0.29501        0.86278
C          3.74443       -0.02944        2.15155
C          5.07614       -0.05312        2.54324
H          7.08478        0.21759        1.88591
H          6.46041        0.80518       -0.42132
H          4.07398        0.84755       -1.07436
H          2.97212       -0.26949        2.86006
C          5.45082       -0.43233        3.93290
C          0.36246        4.68842        0.30094
C         -0.03977        3.84909        1.32065
C          0.37246        2.53055        1.32653
C          1.15920        2.05618        0.30243
C          1.59127        2.89845       -0.69447
C          1.19266        4.23054       -0.71251
H          0.04429        5.71704        0.29081
H         -0.66038        4.22456        2.11777
H          0.11945        1.87565        2.14563
H          2.23502        2.51689       -1.46851
C          1.63703        5.15083       -1.79453
Pd        -0.12979       -0.72080        1.43623
C          1.49017        1.69556       -4.18583
C         -0.19851       -1.20807       -4.46662
H          2.17383        0.92763       -3.82180
H          1.19930        1.43361       -5.20381
H          2.04309        2.63501       -4.22725
H         -0.76441       -2.11249       -4.69455
H         -0.91840       -0.40318       -4.31524
H          0.40653       -0.96186       -5.33997
H         -0.78703       -5.48727       -0.26576
H         -1.60709       -6.27203       -1.61312
H         -0.03934       -5.49951       -1.86431
H         -3.41393        3.87846        2.32305
H         -4.81547        3.40242        3.27914
H         -3.19636        2.92044        3.78939
H          6.35736        0.08428        4.25137
H          4.65822       -0.17564        4.63727
H          5.63032       -1.50582        4.00603
H          0.78234        5.52931       -2.35706
H          2.17410        6.00568       -1.38114
H          2.30251        4.64715       -2.49687
