111
-148.55160049
P         -2.56753        2.14538        0.64792
P          0.11518        0.46920        0.47964
C         -1.50311        1.98932        2.11105
C         -0.32063        1.28777        2.02248
C         -3.46996        3.76275        0.66603
C         -3.28749        4.51340       -0.63443
C         -1.87540        2.55539        3.31400
H         -2.80911        3.08841        3.38638
C         -1.05569        2.42326        4.42166
H         -1.34623        2.86573        5.36051
C          0.13182        1.72333        4.32677
H          0.76867        1.61851        5.18966
C          0.49879        1.14950        3.12285
H          1.41541        0.58745        3.03320
Pd        -1.27535        1.39733       -1.12142
Cl        -2.92525        2.00046       -2.51024
Cl         0.16248        0.66125       -2.68503
C         -4.92763        3.34086        0.94607
C         -3.99440        0.96715        0.66749
H         -3.78822        5.48425       -0.61169
H         -2.23016        4.68170       -0.85189
H         -3.70874        3.94735       -1.46626
H         -5.61428        4.05155        0.46331
H         -5.13801        3.41210        2.02335
H         -3.86081        0.29215       -0.18925
C         -5.21239        1.89098        0.46198
C         -4.02337        0.18063        1.95967
H         -3.05759        4.34708        1.49946
H         -6.08411        1.47150        0.98505
H         -5.48738        1.91223       -0.60289
H         -3.09802       -0.38275        2.09804
H         -4.13190        0.84950        2.81551
H         -4.85650       -0.52595        1.98207
C         -1.17222       -3.89946        0.46746
C         -1.12777       -3.19399        1.69801
C         -0.72625       -1.86840        1.68134
C         -0.45198       -1.23061        0.50027
C         -0.60343       -1.87738       -0.69724
C         -0.99893       -3.20117       -0.75445
O         -1.34636       -5.30898        0.46233
C         -1.46475       -3.85932        3.04168
H         -0.60645       -1.31723        2.59715
H         -0.38683       -1.32669       -1.59611
C         -1.19378       -3.85618       -2.13012
C          4.51704        0.69804       -0.66196
C          3.88141        1.83465       -0.09801
C          2.53846        1.74224        0.23197
C          1.86000        0.55989        0.09565
C          2.49853       -0.56799       -0.34878
C          3.83595       -0.54487       -0.70314
O          5.81762        0.81349       -1.22075
C          4.61608        3.16573        0.12607
H          1.99694        2.60001        0.59214
H          1.92748       -1.47529       -0.43478
C          4.50135       -1.84972       -1.16775
C         -0.18967       -4.47590        3.63636
C         -2.02401       -2.82309        4.04280
C         -2.54600       -4.94146        2.86793
C         -2.25529       -4.96922       -2.07220
C         -1.68979       -2.81466       -3.16018
C          0.14868       -4.42497       -2.61479
C         -0.12748       -6.04077        0.50333
H          0.22579       -5.23419        2.97705
H          0.57349       -3.71256        3.78648
H         -0.39425       -4.94313        4.59933
H         -1.27030       -2.09303        4.33373
H         -2.87291       -2.29051        3.61581
H         -2.36342       -3.31249        4.95544
H         -3.43769       -4.52163        2.40351
H         -2.19463       -5.75601        2.23940
H         -2.83241       -5.36730        3.82924
H         -3.19826       -4.57984       -1.68986
H         -2.43749       -5.38890       -3.06121
H         -1.94324       -5.78271       -1.42230
H         -0.92472       -2.07403       -3.38771
H         -1.95655       -3.29659       -4.10035
H         -2.57131       -2.29218       -2.78960
H          0.89371       -3.63409       -2.69872
H          0.53444       -5.17022       -1.92306
H          0.04383       -4.89428       -3.59258
H         -0.12991       -6.70478        1.36763
H         -0.03502       -6.65130       -0.39466
H          0.72299       -5.36088        0.56922
C          5.82428        1.16344       -2.59918
C          6.10384        2.93274        0.44655
C          4.47525        4.04120       -1.12834
C          4.01176        3.92554        1.32895
C          5.99945       -1.86682       -0.81497
C          3.85942       -3.06973       -0.46648
C          4.30980       -2.00175       -2.68450
H          6.60873        3.87255        0.66863
H          6.21219        2.27701        1.30983
H          6.62273        2.47110       -0.38975
H          3.42529        4.23303       -1.34817
H          4.97313        5.00099       -0.99284
H          4.91136        3.55646       -1.99841
H          3.97932        3.28888        2.21278
H          4.60922        4.80417        1.57118
H          3.00160        4.27432        1.11997
H          6.45641       -2.81654       -1.09194
H          6.53894       -1.07882       -1.33421
H          6.14312       -1.72028        0.25501
H          3.85904       -2.93923        0.61537
H          2.83295       -3.23077       -0.79251
H          4.41207       -3.98117       -0.69331
H          4.75246       -2.93056       -3.04337
H          4.77101       -1.17844       -3.22462
H          3.25020       -2.01148       -2.93919
H          4.80390        1.28755       -2.96430
H          6.37617        2.09295       -2.73787
H          6.32324        0.38274       -3.17304
