111
-148.55361726
P         -1.64669        2.72174        1.00326
P         -0.45516       -0.16667        0.49062
C         -1.25053        1.64133        2.40840
C         -0.80139        0.35755        2.18038
C         -0.49042        4.16400        0.96358
C          0.39128        4.10907       -0.26615
C         -1.36344        2.10820        3.70245
H         -1.67323        3.12574        3.87561
C         -1.05344        1.27708        4.76516
H         -1.14584        1.64048        5.77562
C         -0.61943       -0.01408        4.53296
H         -0.37273       -0.65886        5.36034
C         -0.48227       -0.47194        3.23487
H         -0.10965       -1.46405        3.03371
Pd        -1.67026        1.29891       -0.81951
Cl        -3.12979        2.65445       -1.84135
Cl        -1.46662       -0.19644       -2.48813
C         -1.43390        5.38243        1.01448
C         -3.26216        3.60830        1.19452
H          1.06241        4.96975       -0.31562
H          1.00269        3.20429       -0.28009
H         -0.21466        4.10670       -1.17455
H         -1.57129        5.76305       -0.00688
H         -0.96571        6.20634        1.57392
H         -3.70351        3.64529        0.19031
C         -2.82121        5.02079        1.61800
C         -4.20559        2.91237        2.15235
H          0.10679        4.09889        1.88231
H         -2.77092        5.06489        2.71453
H         -3.58180        5.76192        1.32819
H         -3.78634        2.86780        3.15766
H         -5.16134        3.43686        2.22067
H         -4.40442        1.88625        1.83480
C         -0.64192       -4.67237       -0.13178
C         -1.79211       -3.88386       -0.39298
C         -1.72350       -2.52079       -0.15413
C         -0.55208       -1.93489        0.24703
C          0.59076       -2.67633        0.39829
C          0.59051       -4.04372        0.17953
O         -0.73048       -6.08983       -0.15289
C         -3.10081       -4.48551       -0.92921
H         -2.58512       -1.89086       -0.29296
H          1.49364       -2.16434        0.68470
C          1.91360       -4.81792        0.28811
C          3.70083        1.28536       -0.67636
C          3.23223        1.49285        0.64653
C          1.97552        1.01680        0.97927
C          1.17399        0.42645        0.03808
C          1.57524        0.33124       -1.26750
C          2.81970        0.78390       -1.66811
O          5.05940        1.54545       -0.99816
C          4.07392        2.19776        1.72127
H          1.60598        1.09779        1.98601
H          0.88298       -0.08877       -1.97597
C          3.19610        0.70948       -3.15554
C         -2.82204       -5.69963       -1.83411
C         -3.99371       -4.89858        0.25020
C         -3.86259       -3.45068       -1.78892
C          2.10464       -5.29871        1.73430
C          1.93348       -6.01722       -0.67687
C          3.10784       -3.91258       -0.09423
C         -1.07525       -6.66753        1.09976
H         -2.15198       -5.42497       -2.64809
H         -2.35696       -6.51015       -1.27847
H         -3.74412       -6.08486       -2.26862
H         -4.93593       -5.31797       -0.10167
H         -3.50501       -5.64513        0.87171
H         -4.22095       -4.03943        0.88086
H         -4.24552       -2.62876       -1.18609
H         -3.21450       -3.03614       -2.56071
H         -4.71844       -3.91124       -2.28175
H          1.29760       -5.96072        2.03909
H          3.04398       -5.83986        1.84506
H          2.11821       -4.45385        2.42254
H          1.16634       -6.74418       -0.42175
H          1.75532       -5.68879       -1.70029
H          2.89521       -6.52872       -0.64689
H          4.03011       -4.49063       -0.14783
H          2.94691       -3.44860       -1.06708
H          3.26820       -3.12371        0.63924
H         -1.99789       -7.23852        0.99723
H         -0.28651       -7.34940        1.41714
H         -1.20971       -5.89054        1.85335
C          5.91799        0.42553       -0.82252
C          3.16424        2.92594        2.73684
C          4.91354        1.15412        2.47296
C          4.98949        3.26581        1.09591
C          3.83439       -0.65666       -3.44880
C          1.93955        0.86962       -4.04222
C          4.16355        1.84302       -3.54122
H          2.58105        2.22627        3.33362
H          3.75813        3.52007        3.43098
H          2.47661        3.59884        2.22603
H          5.51522        1.62353        3.25082
H          4.27143        0.41065        2.94480
H          5.58613        0.62989        1.79811
H          4.40478        3.98271        0.52034
H          5.53594        3.81231        1.86415
H          5.72112        2.81886        0.42738
H          4.10277       -0.74449       -4.50124
H          4.73531       -0.80563       -2.85820
H          3.14312       -1.46402       -3.20797
H          2.21503        0.95065       -5.09337
H          1.27017        0.01546       -3.95293
H          1.38559        1.76799       -3.77103
H          5.11048        1.75292       -3.01488
H          3.73488        2.81359       -3.29367
H          4.37781        1.82906       -4.60956
H          6.38962        0.17334       -1.77213
H          6.70226        0.67514       -0.10806
H          5.35354       -0.43355       -0.45747
