111
-148.55485558
P         -2.52940        2.10821        1.06301
P          0.06906        0.36742        0.53982
C         -1.47197        1.62399        2.45424
C         -0.32052        0.90572        2.21488
C         -3.21225        3.81375        1.28831
C         -2.52308        4.81203        0.38389
C         -1.81660        1.95940        3.74800
H         -2.72816        2.50376        3.93275
C         -0.99877        1.58054        4.79876
H         -1.26730        1.84173        5.80936
C          0.15882        0.86652        4.55468
H          0.79404        0.56988        5.37301
C          0.49727        0.52434        3.25769
H          1.38841       -0.04713        3.04944
Pd        -1.34194        1.57122       -0.84305
Cl        -2.93522        2.62010       -2.01960
Cl         0.01746        1.02967       -2.55012
C         -4.71473        3.61950        1.01178
C         -4.09936        1.13524        0.95693
H         -2.92600        5.81840        0.51960
H         -1.44832        4.84704        0.57774
H         -2.65727        4.54324       -0.66462
H         -4.90744        3.83068       -0.04912
H         -5.30750        4.35786        1.57293
H         -4.20777        0.84771       -0.09751
C         -5.17357        2.16976        1.34120
C         -4.04829       -0.08905        1.84497
H         -3.05041        4.07557        2.34170
H         -5.37696        2.08544        2.41761
H         -6.12612        1.93616        0.84173
H         -4.98239       -0.65396        1.80178
H         -3.23525       -0.75593        1.54953
H         -3.87850        0.19335        2.88562
C         -1.11770       -3.97756       -0.12046
C         -1.18322       -3.43181        1.18772
C         -0.81420       -2.10904        1.36607
C         -0.46952       -1.32334        0.29793
C         -0.51552       -1.81550       -0.97893
C         -0.87213       -3.12840       -1.22951
O         -1.25430       -5.37788       -0.31416
C         -1.60304       -4.26250        2.41033
H         -0.77408       -1.67728        2.35023
H         -0.25631       -1.14845       -1.78244
C         -0.94700       -3.61256       -2.68539
C          4.43891        0.72737       -0.67123
C          3.91355       -0.53039       -0.27901
C          2.57924       -0.59672        0.08424
C          1.80197        0.53069        0.13524
C          2.33127        1.76378       -0.13847
C          3.65844        1.90163       -0.51192
O          5.72953        0.80557       -1.25902
C          4.74576       -1.82224       -0.28736
H          2.11831       -1.54231        0.31226
H          1.68132        2.61997       -0.07983
C          4.21222        3.30774       -0.78971
C         -0.35875       -4.91596        3.03041
C         -2.27322       -3.36666        3.47700
C         -2.63136       -5.34045        2.02210
C          0.43975       -4.10502       -3.12664
C         -1.98737       -4.73555       -2.84614
C         -1.38182       -2.45918       -3.61901
C         -0.02450       -6.09023       -0.25907
H          0.13423       -5.57656        2.32119
H          0.36312       -4.15825        3.33453
H         -0.62305       -5.50306        3.90956
H         -1.56815       -2.66245        3.91598
H         -3.09940       -2.80254        3.04575
H         -2.67167       -3.96971        4.29258
H         -2.20560       -6.06505        1.33247
H         -2.97828       -5.88546        2.89965
H         -3.49708       -4.88837        1.53920
H          1.17434       -3.30364       -3.05068
H          0.78280       -4.92786       -2.50383
H          0.42142       -4.44922       -4.16034
H         -2.08553       -5.03244       -3.89002
H         -1.70887       -5.61938       -2.27789
H         -2.96427       -4.40632       -2.49365
H         -0.61710       -1.68751       -3.69206
H         -1.56249       -2.82588       -4.62909
H         -2.30114       -1.99641       -3.26123
H         -0.07378       -6.84381        0.52678
H          0.14767       -6.59840       -1.20769
H          0.80227       -5.40786       -0.05725
C          5.73081        0.65943       -2.67376
C          6.22350       -1.53341        0.03240
C          4.23586       -2.80660        0.79061
C          4.62033       -2.49765       -1.66164
C          5.71031        3.39407       -0.44604
C          3.98484        3.65722       -2.26847
C          3.49020        4.36125        0.08096
H          6.67934       -0.90503       -0.72847
H          6.31548       -1.01930        0.98855
H          6.80046       -2.45628        0.08645
H          4.18745       -2.32262        1.76573
H          3.24663       -3.19332        0.54958
H          4.90152       -3.66524        0.87589
H          3.57924       -2.73437       -1.88005
H          4.98484       -1.84974       -2.45500
H          5.19156       -3.42503       -1.69482
H          6.08622        4.40750       -0.58433
H          5.88318        3.10650        0.59048
H          6.30152        2.73569       -1.07741
H          4.49799        2.95690       -2.92282
H          2.92354        3.62083       -2.51339
H          4.35015        4.65867       -2.49426
H          2.44883        4.48280       -0.21338
H          3.96566        5.33677       -0.01879
H          3.51984        4.08055        1.13345
H          6.16608        1.54693       -3.13278
H          6.33963       -0.20034       -2.95285
H          4.71358        0.52052       -3.04226
