111
-148.55718448
P         -2.76355        1.75876       -0.23873
P          0.17311        0.63410        0.15020
C         -1.81944        2.20295        1.24256
C         -0.51871        1.76628        1.37769
C         -3.82420        3.15580       -0.82700
C         -3.20411        3.86947       -2.00835
C         -2.39444        2.97573        2.23115
H         -3.41751        3.29844        2.12844
C         -1.65960        3.31743        3.35323
H         -2.10773        3.92053        4.12597
C         -0.35409        2.88508        3.48434
H          0.21770        3.14901        4.35877
C          0.21568        2.10317        2.49607
H          1.22783        1.74563        2.59420
Pd        -1.22036        0.87375       -1.69961
Cl        -2.76960        0.87472       -3.32013
Cl         0.38762       -0.04143       -2.97261
C         -5.16363        2.45682       -1.12403
C         -4.04991        0.45331        0.02649
H         -3.83471        4.69203       -2.35365
H         -2.22250        4.27694       -1.75502
H         -3.06779        3.18606       -2.84739
H         -5.17203        2.14560       -2.17787
H         -5.99898        3.16574       -1.01782
H         -3.88788       -0.29473       -0.76132
C         -5.36989        1.21100       -0.21523
C         -3.93201       -0.17631        1.39748
H         -3.93506        3.84295        0.02131
H         -5.77621        1.53019        0.75436
H         -6.12590        0.53499       -0.64268
H         -4.02419        0.57885        2.18018
H         -4.71118       -0.92407        1.56237
H         -2.96473       -0.66462        1.52636
C         -1.30209       -3.52330        1.27549
C         -0.94109       -3.24323       -0.06902
C         -0.47859       -1.97469       -0.36841
C         -0.31698       -1.02763        0.60745
C         -0.53557       -1.33478        1.92448
C         -0.98318       -2.59076        2.29904
O         -2.05836       -4.68393        1.58080
C         -1.05013       -4.25417       -1.22166
H         -0.25746       -1.69856       -1.38499
H         -0.37451       -0.57038        2.66542
C         -1.09998       -2.88998        3.80245
C          4.71775        0.88453       -0.03900
C          3.94609        1.37155       -1.12527
C          2.56542        1.31750       -1.02638
C          1.95702        0.72700        0.04966
C          2.70055        0.14838        1.04560
C          4.08470        0.18536        1.01976
O          6.11813        1.11856        0.00385
C          4.58116        1.94778       -2.40111
H          1.94115        1.72174       -1.80391
H          2.17857       -0.34123        1.84968
C          4.87482       -0.50361        2.14338
C         -2.22980       -3.86377       -2.12841
C          0.25313       -4.22976       -2.05076
C         -1.23971       -5.69594       -0.72031
C          0.19855       -2.44561        4.51143
C         -2.28802       -2.10924        4.38915
C         -1.27830       -4.39086        4.08939
C         -3.45670       -4.45775        1.51324
H         -3.16976       -3.88051       -1.58010
H         -2.09768       -2.85913       -2.52924
H         -2.31883       -4.55094       -2.96927
H          1.11683       -4.42144       -1.41478
H          0.23252       -4.99197       -2.82918
H          0.40304       -3.26988       -2.54205
H         -2.19247       -5.81323       -0.20945
H         -1.21966       -6.40536       -1.54726
H         -0.44988       -5.96626       -0.02034
H          1.06471       -2.93575        4.06769
H          0.34940       -1.36949        4.44358
H          0.17161       -2.70411        5.56968
H         -2.16292       -1.03718        4.23959
H         -3.22361       -2.40328        3.91712
H         -2.38129       -2.28928        5.45978
H         -1.26062       -4.59094        5.16047
H         -2.22620       -4.75676        3.70209
H         -0.48163       -4.96856        3.62198
H         -3.75021       -3.70615        2.24423
H         -3.73085       -4.10552        0.52002
H         -3.98232       -5.38937        1.72369
C          6.48266        2.35151        0.61120
C          3.67412        1.68392       -3.62532
C          4.76271        3.46453       -2.24170
C          5.93570        1.27857       -2.69763
C          5.14158        0.50623        3.26982
C          4.07569       -1.69093        2.72802
C          6.20391       -1.07195        1.61408
H          4.17832        1.96561       -4.54936
H          3.41365        0.62806       -3.69408
H          2.75158        2.26015       -3.57662
H          3.80359        3.95083       -2.06530
H          5.41130        3.69808       -1.40078
H          5.20282        3.90115       -3.13788
H          6.66121        1.48614       -1.91517
H          5.82144        0.19740       -2.76845
H          6.35329        1.63804       -3.63775
H          5.69133        0.04215        4.08829
H          5.72359        1.35171        2.91139
H          4.20471        0.89419        3.66918
H          3.75423       -2.36946        1.93823
H          4.68529       -2.25945        3.43000
H          3.19442       -1.35369        3.27177
H          6.02545       -1.75629        0.78535
H          6.73652       -1.61504        2.39437
H          6.85930       -0.28073        1.25820
H          7.01922        2.97000       -0.10799
H          5.59516        2.88247        0.95778
H          7.14497        2.16000        1.45532
