111
-148.55449193
P         -2.56835        2.04666        1.01822
P          0.11473        0.42185        0.48108
C         -1.44654        1.66402        2.39277
C         -0.26119        1.00565        2.14424
C         -3.37754        3.69745        1.23569
C         -2.76165        4.74716        0.33674
C         -1.77472        2.02209        3.68485
H         -2.71205        2.51673        3.87962
C         -0.90725        1.72888        4.72309
H         -1.16313        2.00896        5.73192
C          0.28397        1.07655        4.46901
H          0.95820        0.84680        5.27758
C          0.60587        0.70916        3.17479
H          1.52304        0.18306        2.95972
Pd        -1.36372        1.54945       -0.88993
Cl        -3.02470        2.53998       -2.02654
Cl        -0.06454        1.00214       -2.63860
C         -4.85892        3.38802        0.95168
C         -4.06034        0.95413        0.94648
H         -3.24099        5.71950        0.47189
H         -1.69389        4.86373        0.53690
H         -2.86899        4.47187       -0.71297
H         -5.05757        3.56592       -0.11424
H         -5.50948        4.08989        1.49545
H         -4.14739        0.62761       -0.09855
C         -5.21084        1.91395        1.30415
C         -3.91649       -0.23549        1.87087
H         -3.24398        3.97204        2.28966
H         -5.41614        1.83415        2.38052
H         -6.13960        1.60162        0.80297
H         -3.05893       -0.85109        1.59108
H         -3.76326        0.09069        2.90126
H         -4.80717       -0.86775        1.85077
C         -1.11400       -3.93512       -0.01432
C         -1.02476       -3.38046        1.28847
C         -0.64406       -2.05496        1.41303
C         -0.43000       -1.27588        0.30678
C         -0.61804       -1.77922       -0.95243
C         -1.00122       -3.09352       -1.15021
O         -1.27309       -5.33666       -0.17991
C         -1.29279       -4.20435        2.55732
H         -0.49466       -1.61433        2.38266
H         -0.44523       -1.12169       -1.78634
C         -1.25361       -3.58436       -2.58377
C          4.48909        0.72972       -0.73675
C          3.91511       -0.53880       -0.45762
C          2.57913       -0.58480       -0.09810
C          1.84584        0.56199        0.06129
C          2.42724        1.79368       -0.08443
C          3.76084        1.91392       -0.44232
O          5.74947        0.81064       -1.38256
C          4.68187       -1.87027       -0.52703
H          2.08772       -1.53214        0.04569
H          1.81961        2.66925        0.07137
C          4.36716        3.32654       -0.49367
C          0.01554       -4.86390        3.01899
C         -1.81823       -3.30096        3.69642
C         -2.36780       -5.27679        2.30411
C          0.06956       -4.07389       -3.19180
C         -2.30203       -4.71109       -2.61078
C         -1.80572       -2.43586       -3.45987
C         -0.04591       -6.04882       -0.27819
H          0.41075       -5.53113        2.25680
H          0.77497       -4.11004        3.22562
H         -0.13954       -5.44532        3.92748
H         -2.12012       -3.89932        4.55573
H         -1.05688       -2.60451        4.04446
H         -2.68471       -2.72754        3.36870
H         -2.60415       -5.81869        3.21951
H         -3.28502       -4.82037        1.93339
H         -2.03618       -6.00465        1.56772
H         -0.07578       -4.42314       -4.21367
H          0.80460       -3.26952       -3.21146
H          0.49086       -4.89243       -2.61284
H         -1.95315       -5.59157       -2.07735
H         -3.22936       -4.38298       -2.14236
H         -2.52669       -5.01302       -3.63343
H         -2.10969       -2.80697       -4.43825
H         -2.67498       -1.97475       -2.99171
H         -1.05914       -1.66182       -3.63037
H          0.00986       -6.55283       -1.24285
H          0.79947       -5.36716       -0.17516
H          0.00001       -6.80590        0.50452
C          5.64140        0.80897       -2.79640
C          4.38171       -2.70164        0.74043
C          4.22169       -2.65968       -1.76421
C          6.20579       -1.66712       -0.58132
C          3.96095        4.10618        0.77659
C          5.90520        3.30371       -0.53236
C          3.83243        4.06644       -1.73105
H          4.97237       -3.61731        0.75303
H          4.62295       -2.13368        1.63851
H          3.33383       -2.99210        0.79671
H          4.73493       -3.61884       -1.82749
H          3.15035       -2.85474       -1.72521
H          4.42504       -2.10893       -2.68055
H          6.54106       -1.05067        0.25202
H          6.73130       -2.62055       -0.53260
H          6.50559       -1.17348       -1.50258
H          4.44067        5.08431        0.80192
H          2.88602        4.27163        0.82439
H          4.25880        3.56252        1.67272
H          6.30197        2.72292        0.29957
H          6.27004        2.85749       -1.45440
H          6.31487        4.31160       -0.47004
H          4.11589        3.55470       -2.64861
H          4.22516        5.08180       -1.77785
H          2.74483        4.12749       -1.70850
H          5.16143       -0.10826       -3.13354
H          5.04455        1.65750       -3.12648
H          6.63782        0.87668       -3.23353
