105
-153.06116069
Cl         2.98691        2.07241        0.02410
Pd         0.85528        1.69879       -0.58755
P         -1.33153        1.23115       -1.25451
N         -1.43904       -0.39268       -0.69264
C         -0.48914       -1.28593       -1.18099
C         -0.10936       -2.35700       -0.33144
C          1.00318       -3.15011       -0.66376
C          1.44693       -4.22231        0.30805
C          2.74301       -4.95960       -0.07393
C          2.86984       -5.13273       -1.59047
C          2.84847       -3.76483       -2.28775
C          1.67994       -2.91506       -1.86388
C          1.26557       -1.88406       -2.70265
C          0.20862       -1.07668       -2.37053
H         -0.07928       -0.26282       -3.01019
H          1.80210       -1.71224       -3.62027
H          3.77580       -3.22202       -2.07051
H          3.78033       -5.69232       -1.84802
H          3.60666       -4.39238        0.29117
H          1.55588       -3.76066        1.29710
C         -1.00633       -2.71508        0.79950
C         -1.13570       -1.90740        1.96168
C         -1.96478       -2.35589        2.98940
C         -2.67826       -3.52086        2.87510
C         -2.63793       -4.27737        1.71121
C         -3.51204       -5.50630        1.63165
C         -3.31245       -6.34923        0.36147
C         -3.10834       -5.45372       -0.86400
C         -1.86969       -4.56476       -0.67985
C         -1.82363       -3.85801        0.65676
H         -0.96839       -5.17322       -0.80450
H         -3.99311       -4.81969       -1.00217
H         -4.15935       -7.03277        0.20744
H         -4.55947       -5.18843        1.69910
H         -3.31252       -3.84373        3.68346
H         -2.05147       -1.75921        3.88102
N         -0.56017       -0.65048        2.11955
P          0.74906        0.21075        1.28315
C          2.20476       -0.83375        1.35476
C          2.42054       -1.53873        2.51493
C          3.56185       -2.30930        2.65175
C          4.49210       -2.37981        1.62400
C          4.25593       -1.66079        0.46020
C          3.11294       -0.89520        0.32502
H          2.93074       -0.33685       -0.57866
H          4.97725       -1.69795       -0.33805
C          5.73529       -3.18422        1.78187
H          3.73822       -2.85777        3.56115
H          1.69454       -1.47925        3.31068
C          1.04072        1.59850        2.39349
C          0.01603        2.50034        2.55058
C          0.17994        3.59201        3.38320
C          1.37516        3.78787        4.06104
C          2.39410        2.85836        3.89905
C          2.22717        1.76789        3.06574
H          3.02304        1.05513        2.92737
H          3.32208        2.99669        4.42706
C          1.54680        4.95295        4.97232
H         -0.62023        4.30166        3.50550
H         -0.90512        2.35568        2.01030
H         -0.69164       -0.19564        3.01446
H         -1.35631       -0.33829        0.32191
C         -1.96786        1.29083       -2.92718
C         -1.41403        2.11796       -3.87384
C         -1.92191        2.13142       -5.15866
C         -2.98551        1.30880       -5.50531
C         -3.53698        0.48449       -4.53317
C         -3.02560        0.47378       -3.24721
H         -3.43768       -0.17495       -2.48998
H         -4.36816       -0.15003       -4.78914
C         -3.54968        1.33926       -6.88321
H         -1.49386        2.78219       -5.90191
H         -0.58120        2.74351       -3.60067
C         -2.21478        2.33337       -0.15928
C         -3.07986        1.82072        0.77746
C         -3.68001        2.66911        1.69028
C         -3.41522        4.03238        1.66822
C         -2.52703        4.52674        0.72197
C         -1.92689        3.67710       -0.18893
H         -1.19728        4.04158       -0.89511
H         -2.29520        5.57800        0.71382
C         -4.02928        4.93951        2.67675
H         -4.35171        2.27453        2.43339
H         -3.27025        0.75990        0.80184
Cl         0.94302        3.33379       -2.12630
H          2.82775       -3.89031       -3.37787
H          2.80091       -5.93279        0.43339
H          2.03369       -5.74105       -1.95778
H          0.64051       -4.95187        0.43002
H         -3.02913       -6.05530       -1.78060
H         -1.82578       -3.81228       -1.47762
H         -3.33555       -6.11944        2.52465
H         -2.43366       -6.99451        0.48642
H          6.50818       -2.60590        2.28980
H          5.54849       -4.08512        2.36813
H          6.13026       -3.49543        0.81370
H          2.59272        5.25760        5.02918
H          0.97111        5.81194        4.62471
H          1.21155        4.70859        5.98119
H         -2.78121        1.58362       -7.61793
H         -3.97282        0.37177       -7.15705
H         -4.34014        2.08689       -6.96150
H         -5.01084        4.57764        2.98595
H         -3.40146        5.01116        3.56600
H         -4.15912        5.94514        2.27440
