171
-217.83703726
P         -1.73177        0.65655        0.21859
P          1.48717       -0.19983       -0.20894
C         -0.90486        1.86931       -0.83483
C          0.69749       -0.76228       -1.72765
C         -0.18254        1.54913       -1.97854
C          0.50250        2.57598       -2.65522
C          0.42004        3.87463       -2.18214
C         -0.30630        4.17443       -1.05005
C         -0.95873        3.16316       -0.37217
C          0.87153       -2.04950       -2.17424
C          0.26606       -2.46503       -3.34399
C         -0.52883       -1.58885       -4.05318
C         -0.72876       -0.29022       -3.61431
C         -0.07812        0.14174       -2.44251
Cl         1.94591        0.91470        2.83465
Cl        -1.15592        0.16597        3.45603
C         -1.60372        0.63147       -4.38990
C          1.33038        2.29957       -3.86135
H         -0.35767        5.18866       -0.68917
H         -1.50906        3.37826        0.53200
H          1.47903       -2.73372       -1.60702
H          0.41170       -3.47117       -3.70146
H          0.94499        4.65487       -2.70728
H         -0.99993       -1.91069       -4.96626
C         -2.82958       -3.39944       -1.47398
C         -3.49032       -2.26712       -1.93038
C         -3.10612       -1.03951       -1.40595
C         -2.11369       -0.96363       -0.45978
C         -1.48431       -2.09870       -0.00293
C         -1.82479       -3.34460       -0.51644
H         -3.11929       -4.35721       -1.86517
H         -3.58774       -0.13081       -1.72228
H         -0.72220       -2.00672        0.74958
C         -5.67278        2.52312        1.45986
C         -4.93225        1.84958        2.42368
C         -3.72213        1.28943        2.03791
C         -3.28090        1.39972        0.74447
C         -4.02603        2.06797       -0.19592
C         -5.24069        2.64863        0.14464
H         -6.60795        2.96344        1.75058
H         -3.09801        0.77786        2.74677
H         -3.64874        2.14894       -1.20211
C          3.82796       -3.64906        1.64113
C          2.83812       -3.05106        2.40958
C          2.10734       -2.01822        1.83869
C          2.37050       -1.58284        0.56091
C          3.36890       -2.17749       -0.17132
C          4.10734       -3.23345        0.34545
H          4.40261       -4.44541        2.07528
H          1.33675       -1.53840        2.41093
H          3.58027       -1.81490       -1.16214
C          4.60549        2.89463       -1.32516
C          3.81456        3.12545       -0.20578
C          2.86898        2.16703        0.12893
C          2.71353        1.03853       -0.63403
C          3.49040        0.83482       -1.74842
C          4.46216        1.75943       -2.11362
H          5.36624        3.60574       -1.58608
H          2.26225        2.29217        1.00758
H          3.32057       -0.04635       -2.34228
Pd         0.11473        0.44376        1.62280
C         -5.71582       -3.32928       -2.38663
C         -4.62487       -2.40273       -2.95578
C         -4.06698       -2.99912       -4.25987
C         -5.26802       -1.03886       -3.27350
H         -5.32924       -4.33019       -2.19892
H         -6.10051       -2.93676       -1.44546
H         -6.55105       -3.42048       -3.08083
H         -4.85518       -3.11777       -5.00315
H         -3.30197       -2.34978       -4.68265
H         -3.61872       -3.97705       -4.08805
H         -6.07598       -1.15013       -3.99647
H         -5.68859       -0.58884       -2.37460
H         -4.53967       -0.34868       -3.69766
C         -2.23239       -5.47858        0.72416
C         -1.17646       -4.64788       -0.02651
C          0.00093       -4.37543        0.92486
C         -0.64105       -5.45222       -1.22650
H         -2.62701       -4.92112        1.57348
H         -3.06845       -5.73284        0.07343
H         -1.80420       -6.40798        1.09926
H          0.46842       -5.30926        1.23551
H          0.76422       -3.77346        0.43479
H         -0.32991       -3.85460        1.82260
H          0.10447       -4.87704       -1.77335
H         -0.17044       -6.37754       -0.89455
H         -1.43760       -5.71689       -1.92028
C         -5.61273        3.17051        4.44379
C         -5.45516        1.75286        3.86421
C         -4.48849        0.96167        4.76774
C         -6.81780        1.03590        3.86398
H         -5.96443        3.13368        5.47468
H         -4.65964        3.69893        4.43079
H         -6.32818        3.75679        3.86836
H         -4.87412        0.89743        5.78503
H         -4.35285       -0.05566        4.40141
H         -3.51216        1.44342        4.81554
H         -6.72724        0.03863        3.43382
H         -7.20438        0.93260        4.87774
H         -7.55542        1.58603        3.28095
C         -7.35729        3.96893       -0.36618
C         -6.03610        3.40828       -0.92636
C         -6.36508        2.45356       -2.08905
C         -5.18642        4.58297       -1.44638
H         -7.91045        4.50080       -1.14022
H         -7.99682        3.16827        0.00499
H         -7.17252        4.67042        0.44716
H         -6.94230        1.60009       -1.73402
H         -6.94943        2.96027       -2.85687
H         -5.45814        2.07442       -2.55850
H         -4.25933        4.23158       -1.89811
H         -5.72897        5.15393       -2.19963
H         -4.92559        5.25906       -0.63238
C          3.90100       -3.17107        4.67016
C          2.62532       -3.48563        3.86786
C          2.33578       -4.99660        3.92772
C          1.44415       -2.73785        4.51982
H          3.78281       -3.44873        5.71737
H          4.75940       -3.71297        4.27469
H          4.12842       -2.10609        4.62616
H          2.18818       -5.32303        4.95704
H          1.43397       -5.24026        3.36805
H          3.15750       -5.57720        3.51062
H          1.29770       -3.06804        5.54795
H          1.62334       -1.66312        4.54381
H          0.51549       -2.92010        3.97997
C          4.55398       -4.42109       -1.81526
C          5.19521       -3.87935       -0.52337
C          5.88887       -5.04642        0.20458
C          6.25613       -2.82008       -0.87599
H          4.10043       -3.62093       -2.39919
H          5.29718       -4.91097       -2.44407
H          3.77542       -5.14765       -1.58301
H          6.38075       -4.70437        1.11495
H          5.17274       -5.82438        0.46880
H          6.65006       -5.50006       -0.43009
H          5.81924       -1.99415       -1.43572
H          6.70522       -2.40932        0.02803
H          7.05170       -3.25078       -1.48369
C          5.04726        5.32497        0.14674
C          3.96225        4.37021        0.67981
C          4.34910        3.93273        2.10494
C          2.62165        5.12694        0.71689
H          4.80980        5.66371       -0.86160
H          5.13044        6.20777        0.78057
H          6.02292        4.83970        0.12879
H          4.47780        4.79615        2.75725
H          3.58384        3.29410        2.54451
H          5.28428        3.37341        2.09504
H          2.69592        6.02376        1.33151
H          2.32413        5.42905       -0.28688
H          1.82727        4.50570        1.12900
C          4.97110        0.29917       -4.13542
C          5.40891        1.51821       -3.29896
C          6.82499        1.25852       -2.75464
C          5.42992        2.75238       -4.22121
H          5.00631       -0.61723       -3.54692
H          3.95735        0.42767       -4.51410
H          5.63006        0.16175       -4.99262
H          7.19058        2.11482       -2.18868
H          6.83017        0.39368       -2.09154
H          7.52717        1.06710       -3.56587
H          4.43380        2.96843       -4.60489
H          5.78787        3.63775       -3.69781
H          6.08727        2.58680       -5.07467
H         -2.05648        1.38322       -3.74133
H          0.85644        2.69689       -4.76002
H         -2.41314        0.08742       -4.87853
H         -1.03603        1.14962       -5.16371
H          1.48743        1.23015       -4.00585
H          2.31135        2.76573       -3.76571
