105
-153.06540760
Cl         0.06791        2.00359        3.05373
Pd        -0.47013        1.32771        0.97368
P         -1.09854        0.50560       -1.14773
N         -0.68318       -0.99079       -1.98123
C          0.20645       -2.00267       -1.62573
C          0.32512       -2.48117       -0.29684
C          1.27187       -3.48609       -0.00762
C          1.37687       -4.00325        1.40771
C          2.19235       -5.29684        1.55984
C          3.46672       -5.24517        0.71238
C          3.11974       -5.06491       -0.77271
C          2.07287       -4.00963       -1.02640
C          1.89667       -3.56261       -2.32984
C          0.98015       -2.58845       -2.62676
H          0.87006       -2.23820       -3.63825
H          2.50369       -3.98553       -3.11239
H          4.02147       -4.81374       -1.34596
H          4.09051       -4.40610        1.04548
H          2.43469       -5.48431        2.61544
H          1.82239       -3.21679        2.02769
C         -0.67887       -2.11210        0.72984
C         -0.26162       -1.52088        1.95326
C         -1.19905       -1.38667        2.98171
C         -2.49500       -1.80061        2.81502
C         -2.92361       -2.37291        1.62343
C         -4.35498       -2.84610        1.53731
C         -4.81231       -3.22519        0.11949
C         -3.72413       -4.01698       -0.60994
C         -2.43171       -3.19421       -0.71531
C         -2.01501       -2.52915        0.57444
H         -1.61155       -3.83091       -1.06983
H         -4.07064       -4.33160       -1.60457
H         -5.03767       -2.31523       -0.44987
H         -5.00940       -2.06986        1.95321
H         -3.20140       -1.68574        3.61974
H         -0.89286       -0.92743        3.90521
N          1.03467       -1.01873        2.14093
P          1.60048        0.19809        0.99875
C          2.60612       -0.35774       -0.36535
C          2.40922        0.21420       -1.59733
C          3.22664       -0.14041       -2.65477
C          4.25655       -1.05435       -2.47351
C          4.44772       -1.60716       -1.21356
C          3.62776       -1.25191       -0.15748
H          3.77644       -1.66696        0.82673
H          5.23957       -2.32129       -1.06550
C          5.10991       -1.47036       -3.62022
H          3.06499        0.28785       -3.62909
H          1.61001        0.92432       -1.72524
C          2.55728        1.49193        1.79636
C          3.27047        1.22301        2.93969
C          4.01209        2.22649        3.53654
C          4.04151        3.50331        2.99156
C          3.33051        3.74797        1.82435
C          2.59025        2.74348        1.22771
H          2.03496        2.93065        0.32156
H          3.35897        4.73070        1.38562
C          4.85528        4.57886        3.62273
H          4.57390        2.02289        4.43210
H          3.25211        0.22969        3.35786
H          1.18479       -0.58368        3.04198
H         -0.94935       -0.89661       -2.95337
C         -0.62766        1.89499       -2.19268
C         -0.91932        3.17769       -1.79462
C         -0.54725        4.25063       -2.58147
C          0.12617        4.04736       -3.77794
C          0.39771        2.74569       -4.17597
C          0.02111        1.67541       -3.38566
H          0.24582        0.66800       -3.69293
H          0.90746        2.57562       -5.10898
C          0.51137        5.19959       -4.63907
H         -0.77907        5.25478       -2.26988
H         -1.44408        3.33296       -0.86690
C         -2.89524        0.50999       -1.09886
C         -3.56825        0.75216       -2.27303
C         -4.95189        0.75563       -2.28705
C         -5.67028        0.52812       -1.12134
C         -4.97287        0.27733        0.05166
C         -3.59062        0.25855        0.05832
H         -3.04683        0.06401        0.96865
H         -5.51992        0.09894        0.96139
C         -7.15899        0.50891       -1.13492
H         -5.48219        0.93914       -3.20583
H         -3.00781        0.93953       -3.17572
Cl        -2.33908        2.58263        1.01928
H          2.76414       -6.01574       -1.18731
H          1.58138       -6.15127        1.24265
H          4.07650       -6.14658        0.86726
H          0.36442       -4.15065        1.80437
H         -3.52057       -4.94507       -0.06117
H         -2.55340       -2.41776       -1.47940
H         -4.47213       -3.71005        2.20247
H         -5.75334       -3.79244        0.14995
H          4.67356       -2.32698       -4.13583
H          5.21870       -0.66132       -4.34389
H          6.10932       -1.75207       -3.28577
H          4.41346        5.56068        3.44706
H          4.92584        4.43697        4.70203
H          5.86784        4.58738        3.21704
H         -0.27002        5.41584       -5.36888
H          0.67443        6.09925       -4.04399
H          1.43343        4.99215       -5.18400
H         -7.56491        0.86867       -0.18843
H         -7.55441        1.14563       -1.92751
H         -7.53164       -0.50329       -1.29821
