111
-148.55121470
P         -2.63409        1.97492        0.95952
P          0.10300        0.46387        0.43591
C         -1.52735        1.60360        2.34972
C         -0.30677        1.01274        2.10333
C         -3.58184        3.53906        1.25476
C         -2.95790        4.73872        0.57629
C         -1.89098        1.90875        3.64624
H         -2.85521        2.34716        3.84234
C         -1.02418        1.63244        4.68961
H         -1.30851        1.87138        5.70142
C          0.20289        1.04998        4.43715
H          0.87660        0.83320        5.24972
C          0.56032        0.73343        3.13906
H          1.50439        0.25700        2.92499
Pd        -1.36225        1.62157       -0.94413
Cl        -2.72718        2.99146       -2.06513
Cl        -0.01042        0.97138       -2.62090
C         -4.99122        3.16514        0.76316
C         -4.03698        0.78253        0.74997
H         -3.52068        5.65167        0.78385
H         -1.92868        4.89106        0.90917
H         -2.93582        4.60884       -0.50535
H         -5.06239        3.39273       -0.30956
H         -5.74959        3.79585        1.25198
H         -4.00123        0.45233       -0.29691
C         -5.28447        1.65476        0.99544
C         -3.89938       -0.39514        1.69024
H         -3.59665        3.68837        2.34154
H         -5.62152        1.50484        2.03022
H         -6.11898        1.31621        0.36305
H         -4.73970       -1.08626        1.59158
H         -2.98070       -0.95188        1.49524
H         -3.86436       -0.05931        2.72836
C         -1.16454       -3.89178       -0.02323
C         -0.97103       -3.34698        1.27180
C         -0.57783       -2.02361        1.37471
C         -0.44577       -1.23540        0.26188
C         -0.72508       -1.73214       -0.98257
C         -1.13077       -3.04282       -1.15864
O         -1.35097       -5.29037       -0.18528
C         -1.14395       -4.17564        2.55386
H         -0.35780       -1.59020        2.33402
H         -0.60005       -1.07582       -1.82487
C         -1.49642       -3.52365       -2.57111
C          4.53693        0.66295       -0.57213
C          3.94954       -0.56636       -0.17859
C          2.59569       -0.58029        0.10940
C          1.85278        0.57102        0.08540
C          2.43616        1.77891       -0.19112
C          3.78686        1.86471       -0.48913
O          5.86209        0.68498       -1.08284
C          4.73892       -1.88252       -0.09935
H          2.09409       -1.50364        0.34221
H          1.81342        2.65686       -0.18714
C          4.40688        3.24500       -0.75744
C          0.19432       -4.84016        2.91117
C         -1.57780       -3.27496        3.73328
C         -2.23876       -5.24368        2.37993
C         -0.23092       -4.03384       -3.27672
C         -2.56327       -4.63229       -2.52263
C         -2.09203       -2.36298       -3.40136
C         -0.14256       -6.01597       -0.37505
H          0.10747       -5.42653        3.82553
H          0.52940       -5.50341        2.11734
H          0.96889       -4.08878        3.06376
H         -0.78760       -2.58620        4.02836
H         -2.46126       -2.69285        3.47281
H         -1.82052       -3.87596        4.60932
H         -2.40518       -5.78922        3.30846
H         -3.18042       -4.78274        2.08352
H         -1.96783       -5.96903        1.61681
H          0.21387       -4.86587       -2.73595
H         -0.45677       -4.37117       -4.28794
H          0.51728       -3.24422       -3.34320
H         -2.86788       -4.92730       -3.52644
H         -2.19097       -5.52018       -2.01797
H         -3.44774       -4.28992       -1.98644
H         -1.34693       -1.60089       -3.62420
H         -2.47301       -2.72545       -4.35572
H         -2.91698       -1.88960       -2.86952
H          0.71504       -5.34257       -0.34433
H         -0.04192       -6.76857        0.40683
H         -0.16907       -6.52669       -1.33744
C          5.94306        0.50200       -2.49089
C          4.13471       -2.81750        0.97421
C          4.67388       -2.59530       -1.45882
C          6.20364       -1.62870        0.30013
C          4.28796        3.57141       -2.25392
C          3.66937        4.34071        0.04536
C          5.88224        3.28666       -0.31930
H          3.15005       -3.18239        0.68518
H          4.76686       -3.69231        1.12499
H          4.04316       -2.30226        1.93005
H          5.10543       -1.98273       -2.24667
H          5.21653       -3.53986       -1.43103
H          3.64057       -2.80726       -1.73310
H          6.72358       -1.03856       -0.45021
H          6.25534       -1.08791        1.24451
H          6.74652       -2.56645        0.41586
H          3.24391        3.56935       -2.56628
H          4.70510        4.55371       -2.47405
H          4.81497        2.83904       -2.86046
H          3.62259        4.08134        1.10271
H          4.18465        5.29699       -0.04206
H          2.65367        4.49156       -0.31711
H          6.48895        2.59669       -0.90029
H          5.97838        3.01297        0.73085
H          6.30186        4.28382       -0.44993
H          4.94548        0.38905       -2.91736
H          6.43721        1.36160       -2.94340
H          6.53583       -0.38550       -2.71161
