171
-217.84188171
P         -1.61425        0.32922       -0.34556
P          1.62420       -0.36083       -0.32951
C         -0.91745        1.31802       -1.66841
C          0.93451       -1.35069       -1.65307
C         -0.10322        0.71586       -2.62108
C          0.49877        1.52868       -3.60069
C          0.22821        2.88725       -3.61603
C         -0.61113        3.45683       -2.68222
C         -1.17843        2.66594       -1.70327
C          1.19054       -2.70001       -1.66785
C          0.62978       -3.50114       -2.64234
C         -0.20316       -2.94066       -3.58725
C         -0.47587       -1.58244       -3.58618
C          0.12349       -0.75827       -2.61417
Cl         1.54728        0.42520        2.88884
Cl        -1.60435       -0.56881        2.80831
C         -1.39285       -1.02477       -4.61657
C          1.40750        0.95296       -4.62855
H         -0.82056        4.51367       -2.71208
H         -1.83474        3.10183       -0.96806
H          1.83373       -3.12892       -0.91660
H          0.83654       -4.55881       -2.65819
H          0.68418        3.50143       -4.37420
H         -0.65586       -3.56243       -4.34120
C         -4.03371       -3.12331       -1.97208
C         -2.99053       -3.39800       -1.09560
C         -2.25169       -2.32801       -0.60549
C         -2.54821       -1.04801       -0.99979
C         -3.57922       -0.79190       -1.86999
C         -4.35055       -1.83112       -2.37512
H         -4.62035       -3.94509       -2.33702
H         -1.44251       -2.47942        0.08797
H         -3.79253        0.22940       -2.13976
C         -4.22521        2.68103        2.53139
C         -4.76082        1.57174        1.88947
C         -3.95522        0.89331        0.98352
C         -2.67256        1.31557        0.73387
C         -2.15763        2.40918        1.38594
C         -2.92401        3.11269        2.30528
H         -4.83915        3.20787        3.23733
H         -4.31386        0.01053        0.48490
H         -1.13806        2.70003        1.19707
C          4.26591       -2.72851        2.50535
C          2.93576       -3.10213        2.36101
C          2.15379       -2.39028        1.45990
C          2.68984       -1.35228        0.73727
C          4.00781       -1.00010        0.89283
C          4.82432       -1.67780        1.78800
H          4.87204       -3.26280        3.21232
H          1.10944       -2.62056        1.33731
H          4.39854       -0.17417        0.32528
C          3.96744        3.21603       -1.79727
C          2.90083        3.42469       -0.93156
C          2.18773        2.31411       -0.49692
C          2.52242        1.06012       -0.94243
C          3.56882        0.87128       -1.81185
C          4.32830        1.95089       -2.24583
H          4.53744        4.06819       -2.11591
H          1.36859        2.41436        0.19401
H          3.80410       -0.12861       -2.13751
Pd        -0.00458        0.00033        1.32662
C         -2.45711       -5.70913       -1.92204
C         -2.71086       -4.84621       -0.67203
C         -3.92815       -5.39026        0.09720
C         -1.47418       -4.93751        0.24121
H         -3.32867       -5.73067       -2.57493
H         -1.61899       -5.31693       -2.49658
H         -2.22416       -6.73715       -1.64509
H         -4.82229       -5.38718       -0.52522
H         -3.75478       -6.41382        0.42896
H         -4.13096       -4.77944        0.97678
H         -1.27223       -5.97212        0.51816
H         -0.58865       -4.54956       -0.26116
H         -1.62633       -4.37348        1.16113
C         -6.59545       -0.73201       -2.47732
C         -5.54805       -1.51790       -3.28583
C         -6.20583       -2.80322       -3.82431
C         -5.09022       -0.67179       -4.48867
H         -6.18266        0.20636       -2.10819
H         -7.46619       -0.49686       -3.08911
H         -6.93322       -1.31354       -1.61985
H         -5.48946       -3.40371       -4.38485
H         -6.60740       -3.41005       -3.01306
H         -7.03213       -2.56322       -4.49339
H         -4.62441        0.25938       -4.16906
H         -4.37105       -1.21986       -5.09526
H         -5.93584       -0.41634       -5.12710
C         -7.18026        2.23494        1.88703
C         -6.18592        1.10883        2.22349
C         -6.26894        0.76904        3.72306
C         -6.57822       -0.14535        1.41888
H         -8.20430        1.92661        2.09709
H         -6.97609        3.13173        2.47076
H         -7.11736        2.50064        0.83188
H         -5.54913       -0.00781        3.98034
H         -6.05407        1.64083        4.33980
H         -7.26337        0.41013        3.98775
H         -7.59202       -0.46197        1.66345
H         -6.54388        0.05418        0.34896
H         -5.91035       -0.97837        1.63776
C         -0.98774        3.88013        3.70494
C         -2.30865        4.31277        3.03796
C         -3.24609        4.85590        4.13363
C         -2.03879        5.43477        2.02073
H         -0.54318        4.70437        4.26219
H         -1.15936        3.05663        4.39774
H         -0.25749        3.54681        2.96951
H         -4.17944        5.22308        3.70748
H         -3.47958        4.08338        4.86612
H         -2.77966        5.68573        4.66450
H         -1.57408        6.29586        2.50064
H         -1.37663        5.09265        1.22746
H         -2.96781        5.76547        1.55669
C          0.89767       -4.53897        2.85866
C          2.35636       -4.22107        3.23757
C          2.39241       -3.77107        4.70901
C          3.19194       -5.50265        3.06068
H          0.50553       -5.35106        3.47067
H          0.25335       -3.67315        3.01059
H          0.82922       -4.84664        1.81595
H          3.41290       -3.57598        5.03670
H          1.81781       -2.85461        4.84301
H          1.97016       -4.53449        5.36212
H          2.77825       -6.32133        3.64931
H          3.20485       -5.81171        2.01561
H          4.22282       -5.35426        3.37933
C          7.06016       -1.62145        0.66906
C          6.29116       -1.25317        1.94893
C          6.95885       -1.95478        3.14765
C          6.36631        0.26940        2.18029
H          6.62538       -1.13119       -0.20023
H          8.10524       -1.32022        0.73895
H          7.02779       -2.69690        0.49548
H          6.99615       -3.03419        3.00291
H          7.98385       -1.60740        3.27699
H          6.41886       -1.74728        4.07136
H          7.39439        0.58673        2.35377
H          5.99199        0.82490        1.32150
H          5.77323        0.55539        3.04868
C          3.74419        5.38257        0.38217
C          2.57022        4.84559       -0.45568
C          1.29779        4.86685        0.41118
C          2.34051        5.75753       -1.67554
H          3.53461        6.38710        0.74931
H          3.92778        4.73934        1.24265
H          4.66091        5.42491       -0.20506
H          1.42983        4.27365        1.31549
H          1.05412        5.88408        0.71732
H          0.44670        4.47188       -0.14227
H          2.06352        6.76415       -1.36282
H          3.23687        5.83614       -2.28924
H          1.53973        5.36692       -2.30226
C          6.50680        0.72851       -2.45494
C          5.54676        1.71108       -3.15096
C          6.31305        3.01758       -3.43492
C          5.08650        1.11465       -4.49236
H          6.03549       -0.24178       -2.30485
H          7.40547        0.57138       -3.05118
H          6.81049        1.11207       -1.48102
H          5.68259        3.73775       -3.95611
H          6.66830        3.47234       -2.51032
H          7.18238        2.82661       -4.06406
H          4.53487        0.18698       -4.34412
H          4.44076        1.81349       -5.02245
H          5.93979        0.89675       -5.13447
H         -1.82510       -0.07667       -4.29357
H          0.86789        0.73803       -5.55160
H         -2.21444       -1.71488       -4.81132
H         -0.86862       -0.85706       -5.55813
H          1.86616        0.02690       -4.27905
H          2.20988        1.65107       -4.86783
