111
-148.55515164
P         -2.50505        2.08975        0.93520
P          0.10876        0.34862        0.52135
C         -1.42291        1.73893        2.34788
C         -0.26473        1.01854        2.15171
C         -3.23844        3.78615        1.04378
C         -2.57531        4.74442        0.07873
C         -1.75195        2.17907        3.61408
H         -2.66905        2.72352        3.76805
C         -0.91095        1.90458        4.67889
H         -1.16692        2.24832        5.66779
C          0.25397        1.18937        4.47697
H          0.90754        0.97452        5.30634
C          0.57616        0.74065        3.20875
H          1.47339        0.16706        3.03484
Pd        -1.32160        1.43053       -0.93634
Cl        -2.92524        2.40423       -2.16568
Cl        -0.05219        0.73989       -2.65742
C         -4.73294        3.52832        0.77688
C         -4.04579        1.06544        0.91156
H         -3.00915        5.74467        0.14790
H         -1.50315        4.82466        0.27324
H         -2.69600        4.40499       -0.95063
H         -4.92524        3.65334       -0.29766
H         -5.35000        4.28921        1.27863
H         -4.14510        0.68970       -0.11569
C         -5.15119        2.09464        1.21321
C         -3.95785       -0.07997        1.89650
H         -3.09069        4.12215        2.07793
H         -5.35762        2.08594        2.29229
H         -6.09410        1.79647        0.73012
H         -3.79819        0.29176        2.91036
H         -4.87385       -0.67532        1.90067
H         -3.12390       -0.74297        1.65574
C         -1.12535       -4.02726        0.21027
C         -1.09878       -3.40009        1.48509
C         -0.70415       -2.07413        1.55534
C         -0.43058       -1.35730        0.42003
C         -0.58935       -1.92203       -0.81756
C         -0.97078       -3.24327       -0.96330
O         -1.22035       -5.43926        0.11229
C         -1.49116       -4.10468        2.79482
H         -0.59728       -1.58704        2.50896
H         -0.39987       -1.30908       -1.68188
C         -1.20679       -3.76560       -2.38990
C          4.43676        0.82794       -0.80575
C          3.79543       -0.43127       -0.92356
C          2.47942       -0.53531       -0.50839
C          1.82795        0.52599        0.06274
C          2.47266        1.71724        0.26843
C          3.79313        1.88810       -0.11618
O          5.70491        1.03761       -1.40995
C          4.48044       -1.66438       -1.53304
H          1.93483       -1.45268       -0.64458
H          1.92157        2.52030        0.72708
C          4.49263        3.22253        0.18682
C         -2.44185       -3.19468        3.60384
C         -2.23904       -5.42632        2.54738
C         -0.22710       -4.37786        3.62637
C          0.14589       -3.92411       -3.10433
C         -1.95907       -5.10725       -2.40510
C         -2.07371       -2.75131       -3.16948
C          0.04635       -6.07609        0.13783
H         -2.77864       -3.69493        4.51145
H         -1.95805       -2.26720        3.90559
H         -3.32287       -2.94058        3.01544
H         -2.59213       -5.85921        3.48305
H         -3.10067       -5.26489        1.90051
H         -1.59511       -6.15982        2.06796
H         -0.47905       -4.85857        4.57130
H          0.46178       -5.02940        3.09205
H          0.29907       -3.45069        3.85149
H          0.78295       -4.63912       -2.58716
H          0.00761       -4.27511       -4.12656
H          0.67760       -2.97398       -3.14548
H         -2.89013       -5.03186       -1.84447
H         -2.19858       -5.41192       -3.42360
H         -1.36315       -5.89858       -1.95662
H         -2.32365       -3.13346       -4.15878
H         -3.00520       -2.55435       -2.63962
H         -1.56001       -1.80186       -3.31032
H          0.65270       -5.73695       -0.70058
H          0.56583       -5.83782        1.06457
H         -0.09220       -7.15526        0.06935
C          5.63596        1.50795       -2.75032
C          3.90777       -2.96521       -0.92328
C          4.22926       -1.68476       -3.04856
C          5.99202       -1.66019       -1.24284
C          3.92287        3.85590        1.47670
C          6.00126        3.01959        0.41746
C          4.26068        4.19434       -0.98011
H          2.87412       -3.13183       -1.22289
H          4.47899       -3.83196       -1.25503
H          3.94879       -2.93420        0.16518
H          3.16070       -1.71112       -3.26092
H          4.63867       -0.79909       -3.52821
H          4.68728       -2.55973       -3.50903
H          6.46660       -2.56449       -1.62297
H          6.48359       -0.81013       -1.70914
H          6.17642       -1.60523       -0.17048
H          4.50166        4.73306        1.76516
H          2.89256        4.18284        1.34492
H          3.95517        3.14687        2.30359
H          6.49397        2.65028       -0.47839
H          6.48447        3.95557        0.69663
H          6.17363        2.29766        1.21501
H          3.19540        4.36715       -1.13139
H          4.66590        3.79968       -1.90863
H          4.73518        5.15624       -0.78769
H          4.59621        1.62256       -3.05958
H          6.14686        2.46749       -2.82816
H          6.13663        0.80171       -3.41238
