111
-148.55196547
P         -2.38603        2.33173        0.62492
P          0.08538        0.35604        0.43893
C         -1.38213        2.00866        2.09587
C         -0.33278        1.11976        2.01916
C         -2.64328        4.14605        0.38102
C         -2.19084        4.56294       -1.00132
C         -1.67914        2.62403        3.29503
H         -2.48772        3.33512        3.34223
C         -0.93685        2.32592        4.42461
H         -1.16935        2.80396        5.36219
C          0.09420        1.40906        4.35330
H          0.66502        1.16758        5.23482
C          0.39531        0.80218        3.14720
H          1.18887        0.07436        3.07907
Pd        -1.53721        1.02910       -1.08521
Cl        -3.27271        1.70308       -2.33969
Cl        -0.67333       -0.32952       -2.65011
C         -4.15569        4.32598        0.62860
C         -4.14535        1.76759        0.78640
H         -2.32688        5.63514       -1.16218
H         -1.13611        4.32677       -1.16273
H         -2.76553        4.03900       -1.76711
H         -4.53558        5.14243       -0.00270
H         -4.32973        4.64898        1.66550
H         -4.27626        0.94941        0.06504
C         -4.94603        3.01456        0.35949
C         -4.45965        1.28830        2.18809
H         -2.04965        4.65742        1.15106
H         -5.91285        3.02878        0.88350
H         -5.18941        2.95142       -0.71137
H         -3.77183        0.50116        2.50498
H         -4.37411        2.10696        2.90397
H         -5.47754        0.89777        2.25908
C         -0.88887       -4.08164        0.66894
C         -1.90640       -3.11119        0.85770
C         -1.55126       -1.77287        0.81492
C         -0.26906       -1.39402        0.51352
C          0.69115       -2.32441        0.21519
C          0.40448       -3.67859        0.24764
O         -1.15176       -5.45083        0.93952
C         -3.37413       -3.48488        1.11635
H         -2.27561       -1.00206        1.01644
H          1.67499       -1.97582       -0.04457
C          1.49383       -4.68505       -0.15460
C          4.41654        0.99930       -0.85796
C          3.44910        0.54081       -1.79001
C          2.15096        0.36220       -1.34600
C          1.77643        0.69070       -0.06934
C          2.67967        1.26482        0.78847
C          3.99728        1.47026        0.41446
O          5.79841        0.90982       -1.16604
C          3.74792        0.25098       -3.27077
H          1.40261       -0.04136       -2.00494
H          2.34788        1.55152        1.76990
C          4.92362        2.19785        1.40362
C         -3.73561       -4.82270        0.44580
C         -3.61730       -3.56829        2.63062
C         -4.31740       -2.41566        0.51898
C          2.31673       -5.06736        1.08451
C          0.87663       -5.94412       -0.79032
C          2.44163       -4.06823       -1.20824
C         -0.90623       -5.82886        2.28812
H         -3.16906       -5.64660        0.87230
H         -4.79372       -5.05096        0.57124
H         -3.52015       -4.78658       -0.62155
H         -2.98312       -4.32334        3.08973
H         -3.39666       -2.61442        3.10934
H         -4.65477       -3.82241        2.84628
H         -4.24562       -1.47117        1.05459
H         -4.08236       -2.23356       -0.52942
H         -5.35656       -2.73817        0.57879
H          2.78061       -4.18560        1.52603
H          1.69119       -5.52876        1.84511
H          3.10727       -5.77147        0.82615
H          0.25197       -5.67645       -1.64188
H          1.65078       -6.62752       -1.13834
H          0.25681       -6.48424       -0.07885
H          3.03938       -3.25934       -0.79066
H          3.13708       -4.81584       -1.58900
H          1.87498       -3.67754       -2.05287
H         -1.82971       -6.18720        2.74253
H         -0.17673       -6.63829        2.31288
H         -0.52687       -4.97981        2.85812
C          6.35963       -0.34165       -0.80631
C          5.11380        0.80359       -3.71308
C          3.70439       -1.26643       -3.51396
C          2.67720        0.93380       -4.15071
C          6.21933        2.69064        0.73587
C          4.20280        3.44428        1.96356
C          5.27184        1.25386        2.56622
H          5.19110        1.86576       -3.48355
H          5.92872        0.29281       -3.20571
H          5.26126        0.67524       -4.78514
H          2.72396       -1.67060       -3.26517
H          3.90644       -1.49941       -4.55904
H          4.44337       -1.78418       -2.90516
H          2.63321        2.00239       -3.94262
H          2.90443        0.80603       -5.20867
H          1.68614        0.51702       -3.97988
H          5.99326        3.30610       -0.13416
H          6.81667        3.28455        1.42726
H          6.83318        1.85660        0.40387
H          3.33181        3.17614        2.55919
H          4.86795        4.02180        2.60508
H          3.87105        4.09272        1.15315
H          4.37101        0.92215        3.08172
H          5.91101        1.75240        3.29449
H          5.79584        0.36876        2.21065
H          7.41145       -0.35965       -1.09244
H          6.27690       -0.49289        0.26871
H          5.83352       -1.14788       -1.31532
