111
-148.55429344
P         -2.43944        2.16387        0.55438
P          0.12972        0.31520        0.52192
C         -1.38863        2.06667        2.02278
C         -0.27973        1.24905        2.00907
C         -2.67026        3.90829       -0.01189
C         -1.76023        4.23111       -1.17793
C         -1.68723        2.80815        3.14755
H         -2.54482        3.46120        3.14203
C         -0.87975        2.71344        4.26782
H         -1.11295        3.28923        5.14855
C          0.22441        1.88270        4.25744
H          0.85294        1.80842        5.12957
C          0.52710        1.15042        3.12315
H          1.39029        0.50462        3.09716
Pd        -1.47421        0.85332       -1.07254
Cl        -3.29020        1.09242       -2.36197
Cl        -0.34085       -0.41616       -2.53717
C         -4.17296        3.96162       -0.34052
C         -4.20713        1.68270        0.84242
H         -1.96912        3.57533       -2.02536
H         -1.89605        5.26064       -1.51730
H         -0.70918        4.09763       -0.91023
H         -4.31146        3.69559       -1.39770
H         -4.55105        4.99073       -0.24227
H         -4.42946        0.92159        0.08272
C         -4.98598        2.98085        0.55001
C         -4.43286        1.13512        2.23691
H         -2.44198        4.54696        0.85140
H         -5.22666        3.47076        1.50330
H         -5.95700        2.74720        0.08807
H         -5.45997        0.78672        2.36787
H         -3.76138        0.30352        2.45537
H         -4.24993        1.90227        2.99043
C         -0.93771       -4.09708        0.88945
C         -1.87946       -3.09425        1.24289
C         -1.48213       -1.76882        1.16647
C         -0.24449       -1.42788        0.68411
C          0.61035       -2.38612        0.20386
C          0.27835       -3.72961        0.25428
O         -1.17405       -5.45286        1.23386
C         -3.33651       -3.38767        1.63875
H         -2.14896       -0.97813        1.46556
H          1.54127       -2.07049       -0.23284
C          1.22411       -4.74671       -0.40666
C          4.34564        1.28082       -0.92456
C          3.21764        1.79695       -1.61509
C          1.95758        1.50385       -1.12106
C          1.79064        0.66292       -0.05171
C          2.87217        0.06630        0.54366
C          4.16187        0.32043        0.10522
O          5.64252        1.77950       -1.21103
C          3.30545        2.63488       -2.90214
H          1.08323        1.93391       -1.57932
H          2.69973       -0.60631        1.36654
C          5.31438       -0.46733        0.75156
C         -3.73349       -4.85376        1.39237
C         -3.54095       -3.04699        3.12398
C         -4.27734       -2.51853        0.77590
C          0.50094       -6.06342       -0.74089
C          1.75848       -4.17295       -1.73875
C          2.41059       -5.03360        0.52617
C         -0.73217       -5.77002        2.54271
H         -4.79500       -5.01048        1.58267
H         -3.52666       -5.13937        0.36156
H         -3.18023       -5.52779        2.04177
H         -2.89920       -3.65805        3.75661
H         -3.30425       -2.00251        3.32267
H         -4.57379       -3.22014        3.42505
H         -4.11920       -1.45662        0.94863
H         -4.11253       -2.71087       -0.28389
H         -5.32179       -2.73401        0.99939
H          0.17694       -6.57371        0.16354
H         -0.38057       -5.87307       -1.35213
H          1.15427       -6.74316       -1.28732
H          0.93564       -3.85404       -2.37799
H          2.41317       -3.31801       -1.57855
H          2.33476       -4.92211       -2.28102
H          2.93235       -4.11302        0.78258
H          2.08117       -5.49900        1.45261
H          3.12556       -5.70510        0.05136
H         -1.28114       -5.18059        3.27591
H         -0.90069       -6.83033        2.73196
H          0.32937       -5.55038        2.64181
C          5.97462        2.92287       -0.44123
C          4.70052        2.57157       -3.54766
C          2.30264        2.08245       -3.94024
C          2.94998        4.09718       -2.58737
C          4.92495       -1.95836        0.85421
C          6.60736       -0.39887       -0.07982
C          5.58040        0.08042        2.16317
H          4.71403        3.08985       -4.50617
H          5.45056        3.03623       -2.91206
H          4.99933        1.53744       -3.71548
H          2.40158        2.60320       -4.89223
H          2.47790        1.02166       -4.11676
H          1.27144        2.20106       -3.61217
H          2.98099        4.70801       -3.48923
H          1.94815        4.17261       -2.16567
H          3.64606        4.52515       -1.86845
H          4.64365       -2.34975       -0.12308
H          5.75823       -2.55337        1.22721
H          4.08944       -2.11049        1.53515
H          6.42218       -0.71798       -1.10490
H          7.00216        0.61388       -0.11186
H          7.38055       -1.04045        0.34220
H          6.37585       -0.47942        2.65442
H          4.68713        0.00877        2.78300
H          5.87827        1.12655        2.12990
H          6.97237        3.26465       -0.71726
H          5.25654        3.72004       -0.62660
H          5.95938        2.67674        0.61915
