111
-148.55439501
P         -2.57622        2.22283        0.18367
P         -0.00617        0.37133        0.40721
C         -1.70735        2.06268        1.76820
C         -0.57738        1.27952        1.85235
C         -3.27931        3.92654        0.01593
C         -2.90580        4.53871       -1.31598
C         -2.17085        2.72154        2.88936
H         -3.06249        3.32317        2.82361
C         -1.49378        2.59946        4.09055
H         -1.85526        3.11426        4.96574
C         -0.35631        1.81918        4.16905
H          0.17155        1.72461        5.10372
C          0.10204        1.15435        3.04580
H          0.98655        0.53844        3.09044
Pd        -1.15907        1.29115       -1.38226
Cl        -2.60232        1.82821       -3.00712
Cl         0.36382        0.32043       -2.71645
C         -4.79385        3.69100        0.19362
C         -4.12455        1.21385        0.10323
H         -3.30139        5.55214       -1.41762
H         -1.82156        4.58308       -1.44370
H         -3.30946        3.94441       -2.13719
H         -5.35218        4.44505       -0.38033
H         -5.07726        3.84984        1.24449
H         -3.99170        0.50176       -0.72224
C         -5.20877        2.25657       -0.23962
C         -4.35755        0.47753        1.40482
H         -2.86862        4.52649        0.83911
H         -6.15820        1.96796        0.23436
H         -5.40418        2.24770       -1.32208
H         -3.52076       -0.18430        1.64195
H         -4.46332        1.18235        2.23156
H         -5.26695       -0.12696        1.36689
C         -1.14941       -4.03389        0.67553
C         -0.20369       -3.49147        1.58233
C          0.12118       -2.14998        1.46698
C         -0.49650       -1.34797        0.54270
C         -1.49355       -1.84333       -0.25685
C         -1.87095       -3.17357       -0.19049
O         -1.34536       -5.43905        0.60823
C          0.49786       -4.34114        2.65346
H          0.88130       -1.71406        2.09195
H         -1.96824       -1.18102       -0.95784
C         -3.01728       -3.66775       -1.08684
C          4.47956        0.85687       -0.22089
C          3.65419        2.00284       -0.08573
C          2.29965        1.81448        0.13845
C          1.75481        0.55722        0.14877
C          2.52932       -0.54496       -0.10179
C          3.89122       -0.42938       -0.31999
O          5.89358        0.99137       -0.22604
C          4.20595        3.43482       -0.16745
H          1.64581        2.65275        0.30935
H          2.05105       -1.50787       -0.12714
C          4.70883       -1.69224       -0.63266
C          0.86663       -3.47647        3.88052
C         -0.42219       -5.46713        3.15915
C          1.78850       -4.93365        2.06734
C         -3.77860       -4.83082       -0.42560
C         -4.04564       -2.53964       -1.33118
C         -2.44519       -4.10887       -2.44261
C         -0.49011       -6.09877       -0.31703
H          1.64544       -2.75270        3.64479
H         -0.00466       -2.93617        4.24991
H          1.24392       -4.09807        4.69226
H          0.05124       -6.02832        3.96439
H         -1.35853       -5.05711        3.53613
H         -0.66197       -6.17045        2.36566
H          1.57833       -5.56594        1.20816
H          2.46064       -4.14168        1.73880
H          2.31360       -5.53588        2.80829
H         -4.15031       -4.53707        0.55549
H         -4.62966       -5.13772       -1.03305
H         -3.13925       -5.69993       -0.29316
H         -4.38234       -2.11185       -0.38745
H         -3.63098       -1.74103       -1.94434
H         -4.92110       -2.92134       -1.85591
H         -3.23688       -4.45357       -3.10724
H         -1.93107       -3.28102       -2.93052
H         -1.72914       -4.91847       -2.32413
H         -1.08987       -6.60624       -1.07235
H          0.17304       -5.38069       -0.80120
H          0.10433       -6.84846        0.20493
C          6.48540        0.94886        1.06623
C          5.42181        3.50871       -1.10919
C          3.13837        4.39604       -0.73851
C          4.59503        3.91190        1.23979
C          5.23682       -2.29433        0.67824
C          3.83218       -2.75006       -1.34193
C          5.87933       -1.37000       -1.57903
H          6.25378        2.92013       -0.73090
H          5.16499        3.12702       -2.09679
H          5.76907        4.53545       -1.22167
H          3.56388        5.38250       -0.92128
H          2.74552        4.02057       -1.68310
H          2.30566        4.53018       -0.04977
H          3.73123        3.89697        1.90405
H          5.35823        3.27193        1.67611
H          4.98339        4.92971        1.21353
H          5.89207       -1.59818        1.19597
H          4.41381       -2.53621        1.35018
H          5.79927       -3.20840        0.48962
H          3.07112       -3.15574       -0.67698
H          3.33508       -2.32095       -2.21153
H          4.43808       -3.58927       -1.68271
H          6.58710       -0.68697       -1.11565
H          5.51501       -0.90359       -2.49375
H          6.42339       -2.27388       -1.85181
H          5.72345        0.78320        1.82891
H          7.21975        0.14438        1.10429
H          7.00041        1.88849        1.26489
