171
-217.83389937
P         -1.63348        0.79347        0.35068
P          1.46570       -0.34026       -0.40402
C         -0.96377        1.73386       -1.04353
C          0.38603       -1.11851       -1.62506
C         -0.42998        1.16220       -2.19290
C          0.16022        2.00036       -3.15701
C          0.15676        3.37039       -2.95800
C         -0.38510        3.92191       -1.81708
C         -0.93203        3.09563       -0.85432
C          0.37902       -2.48217       -1.79451
C         -0.44548       -3.06561       -2.73600
C         -1.28344       -2.27622       -3.49442
C         -1.32084       -0.90318       -3.31843
C         -0.45182       -0.30957       -2.38250
Cl         2.41982        1.47343        2.20982
Cl        -0.53903        1.06963        3.43585
C         -2.26575       -0.07853       -4.12104
C          0.80280        1.44859       -4.38145
H         -0.37330        4.98966       -1.67099
H         -1.33442        3.51124        0.05775
H          1.00069       -3.10081       -1.17224
H         -0.44094       -4.13477       -2.87174
H          0.59421        4.00614       -3.70916
H         -1.92293       -2.72653       -4.23428
C         -2.99480       -3.50021       -0.15596
C         -1.84684       -3.26493        0.58974
C         -1.42577       -1.94853        0.73444
C         -2.11790       -0.92517        0.12778
C         -3.25180       -1.17931       -0.60413
C         -3.71925       -2.47885       -0.75555
H         -3.34699       -4.51012       -0.25799
H         -0.55322       -1.71667        1.31773
H         -3.77843       -0.35030       -1.04348
C         -5.33434        3.03414        1.70408
C         -5.10709        2.84299        0.34609
C         -3.95970        2.15570       -0.02770
C         -3.08191        1.69016        0.92037
C         -3.32093        1.89207        2.25522
C         -4.45706        2.56943        2.67649
H         -6.21336        3.56319        2.02088
H         -3.73919        1.99319       -1.07001
H         -2.59642        1.53341        2.96229
C          3.90715       -3.56805        1.70280
C          3.83277       -3.56411        0.31562
C          3.10192       -2.55223       -0.29348
C          2.44487       -1.60279        0.45228
C          2.54826       -1.62121        1.82303
C          3.28034       -2.60183        2.47722
H          4.47478       -4.33232        2.19921
H          3.03586       -2.51665       -1.36698
H          2.07207       -0.84890        2.39468
C          4.31260        2.44169       -2.56854
C          4.20911        1.12101       -2.98986
C          3.33987        0.28665       -2.29789
C          2.60848        0.76133       -1.23738
C          2.71894        2.07055       -0.84165
C          3.57815        2.93993       -1.50003
H          4.98823        3.10452       -3.07541
H          3.22691       -0.74190       -2.59330
H          2.13157        2.40980       -0.00781
Pd         0.43492        0.77179        1.42839
C         -0.78915       -5.52022        0.21545
C         -1.12733       -4.44280        1.26388
C         -2.04933       -5.04038        2.34148
C          0.18579       -4.00074        1.93258
H         -0.14960       -5.11202       -0.56565
H         -0.26247       -6.35677        0.67445
H         -1.68712       -5.91450       -0.25799
H         -2.97782       -5.40772        1.90556
H         -1.56552       -5.87320        2.85155
H         -2.30473       -4.28882        3.08832
H          0.69699       -4.85285        2.37976
H          0.86127       -3.55981        1.20209
H          0.00329       -3.27161        2.72145
C         -4.69146       -3.72506       -2.70581
C         -5.01256       -2.80219       -1.51723
C         -5.68805       -1.52580       -2.05477
C         -5.99822       -3.50617       -0.56575
H         -5.59687       -3.98310       -3.25487
H         -4.00792       -3.23571       -3.39773
H         -4.22589       -4.65221       -2.37358
H         -5.94977       -0.85177       -1.23957
H         -5.03396       -0.99560       -2.74603
H         -6.60583       -1.76872       -2.59008
H         -6.93971       -3.72308       -1.07011
H         -5.59249       -4.44844       -0.19960
H         -6.21481       -2.87687        0.29734
C         -7.27223        4.09334       -0.13628
C         -6.05377        3.37026       -0.74135
C         -6.55922        2.19043       -1.59226
C         -5.28916        4.36330       -1.63667
H         -6.96324        4.95307        0.45799
H         -7.93498        4.45702       -0.92147
H         -7.85057        3.42258        0.49888
H         -7.07990        1.46299       -0.96987
H         -7.25081        2.53234       -2.36204
H         -5.73552        1.67949       -2.08941
H         -4.44345        3.88332       -2.12805
H         -5.93838        4.76993       -2.41186
H         -4.90426        5.19518       -1.04712
C         -6.10160        2.17379        4.52869
C         -4.75408        2.82206        4.16170
C         -4.81969        4.33918        4.41586
C         -3.66164        2.22279        5.06959
H         -6.07868        1.10207        4.33205
H         -6.32940        2.31863        5.58460
H         -6.91879        2.60271        3.94999
H         -3.87921        4.81586        4.14009
H         -5.61404        4.80473        3.83365
H         -5.00972        4.55066        5.46798
H         -2.68889        2.66685        4.85945
H         -3.88732        2.40617        6.11991
H         -3.58497        1.14449        4.93197
C          3.36216       -5.46657       -1.23851
C          4.47641       -4.65605       -0.55084
C          5.33760       -5.61737        0.29072
C          5.37686       -4.00624       -1.61833
H          2.69967       -5.91545       -0.49851
H          2.75778       -4.83341       -1.88725
H          3.78058       -6.26696       -1.84841
H          6.12959       -5.07904        0.81114
H          4.73282       -6.14387        1.02878
H          5.80892       -6.36903       -0.34244
H          5.88857       -4.76448       -2.21084
H          4.79713       -3.38973       -2.30362
H          6.13277       -3.37431       -1.15246
C          4.91937       -2.38312        4.35509
C          3.43828       -2.61288        4.00516
C          2.97709       -3.97018        4.56771
C          2.59930       -1.50355        4.67208
H          5.06821       -2.36773        5.43459
H          5.54881       -3.17020        3.94123
H          5.26548       -1.43138        3.95236
H          3.55957       -4.79253        4.15451
H          3.08626       -3.99847        5.65173
H          1.92862       -4.14931        4.33322
H          2.70371       -1.53838        5.75625
H          2.92032       -0.51517        4.34402
H          1.54083       -1.61719        4.43865
C          4.15966       -0.19559       -5.13899
C          5.05963        0.54960       -4.13394
C          6.08908       -0.42864       -3.54145
C          5.81084        1.65979       -4.89409
H          4.74894       -0.59751       -5.96304
H          3.63893       -1.02955       -4.67050
H          3.41193        0.47539       -5.55995
H          5.59413       -1.24397       -3.01597
H          6.71419       -0.86119       -4.32242
H          6.73889        0.07998       -2.82956
H          6.37217        1.24363       -5.73060
H          5.11572        2.39755       -5.29477
H          6.52247        2.17037       -4.24573
C          3.41149        5.33702       -2.22931
C          3.75381        4.39946       -1.05744
C          5.21385        4.62191       -0.62290
C          2.83406        4.74693        0.13033
H          2.38330        5.18572       -2.55504
H          3.52138        6.38136       -1.93766
H          4.06318        5.15947       -3.08387
H          5.47740        3.95023        0.19390
H          5.90416        4.43609       -1.44490
H          5.36814        5.64548       -0.28196
H          3.06055        4.12598        0.99682
H          2.96252        5.78731        0.42819
H          1.78574        4.60543       -0.13021
H         -1.81819        0.21325       -5.07187
H          1.76636        1.92897       -4.55835
H         -2.54877        0.82971       -3.58654
H         -3.18124       -0.63055       -4.33875
H          0.17846        1.61605       -5.26013
H          0.98143        0.37635       -4.29105
