58
-89.86799681
P          1.52092        0.19050        0.81405
C          1.61467        1.92350        0.34374
C          1.57438        2.92923        1.28281
C          1.63833        4.24969        0.87591
C          1.74721        4.55367       -0.46693
C          1.80022        3.54146       -1.40443
C          1.73707        2.22314       -0.99366
H          1.78809        1.41590       -1.70684
H          1.49338        2.68285        2.32868
C          3.13143       -0.59155        0.66899
C          3.23531       -1.95987        0.56740
C          4.48262       -2.54797        0.45822
C          5.61725       -1.76084        0.45367
C          5.50840       -0.38811        0.55659
C          4.25955        0.19707        0.66477
H          4.15740        1.26784        0.74135
H          2.34197       -2.56313        0.55471
C          0.94389       -0.03465        2.55021
C          0.21074       -1.35895        2.72505
C         -1.27857       -1.28668        2.42413
P         -1.69525       -0.58585        0.76986
C         -3.24035       -1.30486        0.20616
C         -4.32216       -0.49703       -0.06108
C         -5.50754       -1.05762       -0.50125
C         -5.59960       -2.42490       -0.67187
C         -4.51100       -3.23142       -0.40428
C         -3.32688       -2.66759        0.03678
H         -2.46388       -3.28332        0.23633
H         -4.23432        0.56892        0.07240
C         -1.79655        1.21466        0.76149
C         -1.80975        1.84427       -0.46284
C         -1.84979        3.22455       -0.53270
C         -1.88288        3.96849        0.62915
C         -1.88343        3.33475        1.85564
C         -1.84318        1.95414        1.92111
H         -1.85905        1.45744        2.87648
H         -1.78562        1.24809       -1.36179
Pd         0.06241       -0.74015       -0.74391
Cl         1.86073       -0.92707       -2.07928
Cl        -1.40393       -1.56893       -2.22101
H         -1.73279       -2.27949        2.46967
H         -1.79840       -0.68061        3.16752
H          0.68052       -2.11191        2.07757
H          0.35318       -1.73529        3.75027
H          1.84097        0.02076        3.17234
H          0.30885        0.80407        2.83425
H          1.59941        5.04042        1.60703
H          1.89037        3.77622       -2.45221
H          4.56713       -3.61878        0.37159
H          6.39320        0.22698        0.54976
H         -6.35573       -0.42760       -0.71325
H         -4.58067       -4.29774       -0.54335
H         -1.84870        3.71634       -1.49148
H         -1.91315        3.91585        2.76273
H          1.79345        5.58290       -0.78351
H          6.58917       -2.21848        0.36619
H         -6.52163       -2.86307       -1.01769
H         -1.90776        5.04482        0.57872
