87
-129.18157665
P         -1.52438       -0.27151       -0.42683
P          1.71056        0.29737        0.24446
C         -1.08530        0.97287       -1.64490
C          1.51839       -0.80709       -1.17865
C          0.01391        0.73665       -2.46011
C          0.36624        1.70252       -3.42378
C         -0.40624        2.84685       -3.54086
C         -1.49887        3.05756       -2.72487
C         -1.83638        2.11507       -1.77352
C          2.13783       -2.02442       -1.01654
C          2.03675       -2.99749       -1.99195
C          1.29608       -2.74831       -3.12625
C          0.64564       -1.53920       -3.30297
C          0.76344       -0.53900       -2.31854
Cl         0.93835       -0.15863        3.36864
Cl        -1.65774       -1.89131        2.38769
H         -2.08479        3.95635       -2.82593
H         -2.69040        2.26671       -1.13469
H          2.69790       -2.21490       -0.11300
H          2.52595       -3.94866       -1.86057
H         -0.13707        3.58322       -4.27895
H          1.20237       -3.50709       -3.88460
C         -2.45728       -4.17990       -2.54708
C         -1.63405       -4.19787       -1.42949
C         -1.38071       -2.99961       -0.77377
C         -1.91175       -1.82122       -1.24313
C         -2.72199       -1.81001       -2.35417
C         -3.00031       -2.99637       -3.00744
H         -2.67126       -5.10478       -3.05506
C         -1.06078       -5.47176       -0.91726
H         -0.76549       -2.99300        0.10978
H         -3.12417       -0.87366       -2.70824
H         -3.63525       -2.99544       -3.87820
C         -5.15560        1.09800        1.96401
C         -5.22221       -0.05550        1.20847
C         -4.12253       -0.46497        0.47875
C         -2.96872        0.28292        0.50325
C         -2.90009        1.43146        1.25715
C         -3.99197        1.85373        2.00530
H         -6.01087        1.41893        2.53391
H         -6.12797       -0.63922        1.19127
H         -4.15672       -1.37082       -0.10406
H         -1.99230        2.00886        1.26454
C         -3.91451        3.10049        2.81412
C          6.06673       -0.04013        1.53609
C          5.74195        0.14387        0.20655
C          4.41587        0.24599       -0.17215
C          3.42577        0.15863        0.77943
C          3.75056       -0.02212        2.10230
C          5.07568       -0.11802        2.50440
H          7.09819       -0.12631        1.83280
H          6.52030        0.20549       -0.53629
H          4.14689        0.38227       -1.20791
H          2.96421       -0.09234        2.83193
C          5.41645       -0.34248        3.93581
C          0.80317        4.71884       -0.29798
C          1.67109        4.08902       -1.16787
C          1.95698        2.74661       -1.00451
C          1.36331        2.04495        0.01758
C          0.52970        2.67910        0.91031
C          0.23149        4.02815        0.76143
H          0.56885        5.76139       -0.43014
H          2.11807        4.63987       -1.97912
H          2.62848        2.23851       -1.67740
H          0.14435        2.13190        1.75391
C         -0.69886        4.71267        1.69904
Pd        -0.13916       -0.53871        1.44473
C          1.55003        1.52298       -4.30873
C         -0.17637       -1.33480       -4.52850
H          2.18624        0.70679       -3.96435
H          1.24121        1.30187       -5.33117
H          2.15926        2.42774       -4.33115
H          0.45654       -1.11897       -5.39006
H         -0.76069       -2.22719       -4.75721
H         -0.87727       -0.50829       -4.40756
H         -0.95209       -6.20587       -1.71686
H         -0.07407       -5.30873       -0.48105
H         -1.70213       -5.90259       -0.14722
H         -2.97214        3.15119        3.36119
H         -3.98500        3.98227        2.17583
H         -4.72287        3.15004        3.54490
H          6.40412        0.05482        4.17385
H          4.69523        0.14736        4.59164
H          5.41531       -1.40757        4.17132
H         -0.75487        4.18662        2.65300
H         -0.36991        5.73261        1.90297
H         -1.70414        4.76096        1.27846
