59
-75.80991491
Cl         1.65616        0.52229        2.31710
P          1.58270       -0.09799       -0.89416
P         -1.59954       -0.04730       -0.79974
C          0.57534        0.21174       -2.40936
H          0.34235        1.27735       -2.47363
H          1.16971       -0.04873       -3.29094
C         -0.68019       -0.60239       -2.29992
H         -0.44497       -1.66437       -2.18779
H         -1.32901       -0.49460       -3.17490
C          2.61271       -1.61515       -1.20378
H          2.48179       -1.80867       -2.27716
C          2.94528        1.13875       -0.65727
H          3.01693        1.30302        0.42474
C         -3.02926       -1.16252       -0.42117
H         -3.24153       -0.99920        0.64300
C         -2.60402        1.45143       -1.23391
H         -2.02378        2.05951       -1.93866
C          4.05427       -1.14047       -0.94991
H          4.34617       -1.38980        0.07734
H          4.75722       -1.68998       -1.59414
C          4.19194        0.39079       -1.15949
H          4.32677        0.60535       -2.22861
H          5.09593        0.77710       -0.66434
C         -4.17219       -0.59357       -1.29063
H         -4.40937       -1.31353       -2.08654
H         -5.09127       -0.51993       -0.69057
C         -3.82534        0.79561       -1.91333
H         -4.69168        1.47143       -1.85650
H         -3.62163        0.67569       -2.98858
C          2.17933       -2.84671       -0.40900
H          2.76522       -3.71232       -0.74824
H          1.14173       -3.08509       -0.67600
C          2.68639        2.46427       -1.36273
H          3.60236        3.07078       -1.33354
H          2.50408        2.27111       -2.42774
C         -2.72348       -2.63531       -0.66111
H         -3.65563       -3.21304       -0.58965
H         -2.38415       -2.76536       -1.69660
C         -2.98756        2.27529       -0.00505
H         -3.82533        2.93609       -0.26833
H         -3.38715        1.59650        0.75979
C          2.30482       -2.71616        1.10235
H          3.34527       -2.63616        1.41984
H          1.87944       -3.57809        1.62181
H          1.79099       -1.83052        1.47290
C          1.53054        3.24132       -0.75408
H          0.60693        2.66360       -0.78848
H          1.34846        4.18444       -1.27427
H          1.72098        3.47445        0.29529
C         -1.69617       -3.18727        0.31422
H         -1.45372       -4.23290        0.11165
H         -2.05556       -3.12482        1.34316
H         -0.76806       -2.61783        0.27051
C         -1.85092        3.10592        0.56907
H         -1.02631        2.47918        0.90649
H         -1.45298        3.79826       -0.17502
H         -2.17316        3.69913        1.42788
Cl        -1.56804       -0.01496        2.40226
Pd         0.03820        0.05661        0.83761
