105
-153.05912782
Cl         0.47213        3.70525        1.50608
Pd        -0.11083        1.96737        0.20188
P         -0.74955        0.28350       -1.35589
N          0.07335       -1.15355       -1.99990
C          0.17802       -2.47996       -1.58524
C         -0.12222       -2.95430       -0.27782
C          0.26894       -4.26073        0.09069
C          0.20302       -4.66266        1.54766
C          1.08012       -5.87543        1.89153
C          0.84779       -7.00704        0.88611
C          1.19467       -6.55447       -0.54174
C          0.78919       -5.13609       -0.86511
C          0.97609       -4.68254       -2.16417
C          0.70094       -3.38462       -2.50926
H          0.90778       -3.04092       -3.50810
H          1.38218       -5.35871       -2.89757
H          2.27534       -6.64849       -0.70302
H          1.42437       -7.90024        1.16524
H          2.13613       -5.57854        1.86689
H          0.49475       -3.80207        2.16323
C         -0.75157       -2.10122        0.76578
C          0.04071       -1.09873        1.37826
C         -0.44990       -0.42291        2.49421
C         -1.69846       -0.71126        2.98086
C         -2.50549       -1.67267        2.37841
C         -3.86729       -1.93969        2.96298
C         -4.41483       -3.32345        2.58506
C         -4.33263       -3.53324        1.07015
C         -2.88676       -3.40948        0.55757
C         -2.03932       -2.37179        1.26136
H         -2.39574       -4.38438        0.63337
H         -4.96073       -2.78522        0.57379
H         -5.44579       -3.45108        2.94466
H         -4.55682       -1.16050        2.61744
H         -2.07495       -0.17791        3.83715
H          0.15237        0.34063        2.95090
N          1.21516       -0.74161        0.72544
P          1.80446        0.85997        0.95346
C          3.03520        1.24180       -0.28831
C          2.97268        0.61953       -1.51325
C          3.89296        0.94005       -2.49315
C          4.88268        1.88288       -2.25095
C          4.92073        2.50872       -1.01183
C          3.99856        2.18787       -0.03205
H          4.01857        2.67704        0.92893
H          5.67366        3.25421       -0.82091
C          5.85258        2.25316       -3.31845
H          3.84098        0.46620       -3.45861
H          2.18093       -0.08174       -1.72074
C          2.50948        0.93831        2.59957
C          2.36157        2.04576        3.39882
C          2.91920        2.06315        4.66262
C          3.63475        0.97017        5.13308
C          3.76419       -0.14506        4.31589
C          3.20447       -0.15848        3.05023
H          3.29437       -1.02350        2.41152
H          4.30303       -1.00414        4.67733
C          4.21358        0.97577        6.50517
H          2.79896        2.92679        5.29417
H          1.79933        2.88696        3.03130
H          1.08226       -0.85966       -0.27694
H          0.21387       -0.97707       -2.98755
C         -0.71836        1.42850       -2.75207
C          0.44411        2.10122       -3.04265
C          0.48421        2.99077       -4.09984
C         -0.64330        3.21633       -4.87586
C         -1.80903        2.52659       -4.57129
C         -1.84436        1.63802       -3.51263
H         -2.75487        1.11620       -3.27056
H         -2.69169        2.69328       -5.16472
C         -0.59071        4.17464       -6.01465
H          1.39406        3.52005       -4.32651
H          1.31855        1.93819       -2.43763
C         -2.47605       -0.12405       -1.08898
C         -3.05218       -1.02669       -1.95113
C         -4.40196       -1.31439       -1.84938
C         -5.18062       -0.70484       -0.87495
C         -4.58042        0.20227       -0.01292
C         -3.23319        0.49195       -0.12081
H         -2.77601        1.21161        0.53757
H         -5.17864        0.69091        0.73704
C         -6.63947       -0.98771       -0.77787
H         -4.85811       -2.01389       -2.52876
H         -2.44145       -1.49811       -2.70510
Cl        -1.79661        3.21946       -0.61923
H          0.73107       -7.22655       -1.27518
H          0.89297       -6.21881        2.91885
H         -0.20521       -7.31344        0.92586
H         -0.83381       -4.87870        1.82346
H         -4.76319       -4.50477        0.78970
H         -2.88606       -3.18187       -0.51516
H         -3.82041       -1.83064        4.05405
H         -3.82570       -4.09830        3.09166
H          6.80067        2.58391       -2.89211
H          6.06174        1.40480       -3.97160
H          5.45941        3.06326       -3.93421
H          3.50288        0.57070        7.22680
H          5.12155        0.37286        6.55176
H          4.47245        1.98784        6.81942
H          0.07131        3.80778       -6.80027
H         -1.57784        4.32709       -6.45300
H         -0.21913        5.14665       -5.68720
H         -6.97751       -0.95650        0.25899
H         -7.21428       -0.25163       -1.34141
H         -6.87798       -1.97569       -1.17430
