59
-75.81246383
Cl         1.61730        0.54786        2.30638
P          1.60337       -0.04755       -0.85987
P         -1.64081       -0.05854       -0.80076
C          0.57951        0.40805       -2.32475
H          0.32163        1.46820       -2.26344
H          1.17989        0.26473       -3.22855
C         -0.65692       -0.44487       -2.31552
H         -0.39399       -1.50572       -2.29775
H         -1.28883       -0.27504       -3.19315
C          2.49742       -1.62362       -1.27221
H          2.28477       -1.78181       -2.33819
C          3.06655        1.06429       -0.61489
H          3.20159        1.14719        0.47046
C         -2.96170       -1.32058       -0.49786
H         -3.32595       -1.13674        0.52062
C         -2.77015        1.35839       -1.21259
H         -2.29692        1.90680       -2.03624
C          3.98472       -1.26736       -1.09812
H          4.32830       -1.60045       -0.11153
H          4.59842       -1.82452       -1.82202
C          4.22399        0.25973       -1.23085
H          4.31480        0.52739       -2.29269
H          5.18040        0.55082       -0.77012
C         -4.02316       -0.88859       -1.52267
H         -3.77713       -1.35134       -2.48960
H         -5.01013       -1.29253       -1.24788
C         -4.07395        0.66014       -1.67783
H         -4.91122        1.05398       -1.08517
H         -4.30681        0.93440       -2.71742
C          2.01723       -2.83022       -0.46780
H          2.50873       -3.73463       -0.85268
H          0.94893       -2.97891       -0.67178
C          2.88379        2.45064       -1.22034
H          3.84777        2.97813       -1.20512
H          2.63080        2.34455       -2.28318
C         -2.49869       -2.76792       -0.62738
H         -3.38007       -3.41874       -0.71184
H         -1.96183       -2.89072       -1.57594
C         -2.99978        2.28888       -0.02364
H         -3.85234        2.94540       -0.24784
H         -3.31795        1.68533        0.83674
C          2.24679       -2.73092        1.03439
H          3.30750       -2.75598        1.28747
H          1.77240       -3.55389        1.57416
H          1.84633       -1.80301        1.44086
C          1.83047        3.27554       -0.50045
H          1.70710        4.26603       -0.94424
H          2.08758        3.41397        0.55144
H          0.86086        2.78000       -0.52816
C         -1.63746       -3.21856        0.54195
H         -0.76370       -2.57851        0.66037
H         -1.28238       -4.24457        0.42167
H         -2.19155       -3.17006        1.48130
C         -1.79317        3.13613        0.34468
H         -0.96050        2.51817        0.67743
H         -1.44710        3.72348       -0.50785
H         -2.01609        3.83341        1.15553
Cl        -1.58293        0.22439        2.40124
Pd         0.00478        0.05456        0.82219
