105
-153.07007103
Cl         0.44584        3.16762        2.47041
Pd        -0.14214        1.79691        0.78861
P         -0.76267        0.51845       -1.12051
N          0.36164       -0.74359       -1.61160
C          0.51472       -2.11976       -1.40143
C         -0.01256       -2.82802       -0.28920
C          0.35215       -4.17564       -0.08486
C         -0.04923       -4.86402        1.19881
C          0.84658       -6.06064        1.54872
C          0.96386       -7.00338        0.34732
C          1.57089       -6.28038       -0.86725
C          1.14999       -4.83739       -1.02154
C          1.62493       -4.13444       -2.12150
C          1.33356       -2.80679       -2.29618
H          1.73891       -2.26950       -3.13619
H          2.25490       -4.64343       -2.83148
H          2.66514       -6.31210       -0.80090
H          1.55319       -7.89380        0.60786
H          1.84445       -5.69815        1.82574
H         -0.04093       -4.13337        2.01742
C         -0.75450       -2.11405        0.77638
C         -0.02767       -1.21883        1.59687
C         -0.68867       -0.56955        2.63867
C         -2.01583       -0.81335        2.88252
C         -2.74095       -1.71427        2.10930
C         -4.18412       -1.97070        2.48326
C         -4.94356       -2.95905        1.57513
C         -4.00916       -4.01895        0.98068
C         -2.88515       -3.33374        0.19393
C         -2.10917       -2.36724        1.04817
H         -2.21712       -4.06850       -0.26858
H         -4.56108       -4.72904        0.34881
H         -5.42277       -2.40901        0.75629
H         -4.70946       -1.00779        2.51279
H         -2.51267       -0.30607        3.69207
H         -0.14055        0.13026        3.24403
N          1.32816       -0.99611        1.33905
P          1.87574        0.65791        1.08747
C          2.69677        0.84488       -0.49249
C          2.40674        1.94080       -1.27121
C          2.89942        2.01485       -2.56031
C          3.68987        0.99691       -3.07428
C          3.98855       -0.09103       -2.26533
C          3.49773       -0.16435       -0.97407
H          3.70852       -1.02100       -0.35387
H          4.59545       -0.88895       -2.65814
C          4.16817        1.05167       -4.48321
H          2.65318        2.85735       -3.18398
H          1.77595        2.72458       -0.88281
C          2.85874        1.29074        2.43694
C          2.83714        0.62574        3.63869
C          3.57228        1.11172        4.70527
C          4.32542        2.27098        4.57208
C          4.33964        2.92197        3.34530
C          3.60396        2.43427        2.28017
H          3.60253        2.94269        1.32902
H          4.92816        3.81611        3.23025
C          5.13445        2.78565        5.71147
H          3.56374        0.59301        5.64860
H          2.24938       -0.27348        3.73231
H          1.73419       -1.54435        0.59411
H          1.18369       -0.23781       -1.91972
C         -0.64514        1.75905       -2.41855
C         -1.04554        3.05704       -2.21004
C         -0.92357        3.98968       -3.22177
C         -0.40051        3.62833       -4.45583
C         -0.02786        2.30694       -4.66045
C         -0.15067        1.37714       -3.64367
H          0.14331        0.35213       -3.80056
H          0.36246        2.01105       -5.61921
C         -0.28382        4.62795       -5.55320
H         -1.23661        5.00685       -3.05901
H         -1.46175        3.33260       -1.25631
C         -2.42656       -0.13295       -1.27609
C         -2.63838       -0.99977       -2.32300
C         -3.91199       -1.47841       -2.57971
C         -4.98180       -1.09542       -1.78267
C         -4.75157       -0.20810       -0.73967
C         -3.48069        0.27480       -0.49477
H         -3.31251        0.99624        0.28486
H         -5.57666        0.11325       -0.12729
C         -6.34848       -1.61794       -2.05888
H         -4.08072       -2.15795       -3.39748
H         -1.80203       -1.29690       -2.93645
Cl        -2.18309        2.73440        0.74740
H          1.32030       -6.81711       -1.79113
H          0.46797       -6.59329        2.43260
H         -0.03388       -7.37895        0.08702
H         -1.08691       -5.20436        1.11745
H         -3.57350       -4.61564        1.79165
H         -3.31940       -2.78139       -0.64331
H         -4.20253       -2.34070        3.51552
H         -5.76849       -3.43498        2.12344
H          4.34709        2.08075       -4.79796
H          5.10188        0.50089       -4.60483
H          3.42988        0.61706       -5.15866
H          5.20711        3.87372        5.68207
H          4.68788        2.51038        6.66792
H          6.14642        2.37941        5.68288
H         -0.11004        5.62924       -5.15661
H          0.54682        4.38722       -6.21820
H         -1.19627        4.65583       -6.15031
H         -7.04443       -1.35424       -1.26134
H         -6.73847       -1.20904       -2.99195
H         -6.33902       -2.70552       -2.14494
