59
-75.80969008
Cl         1.68084        0.49267        2.30351
P          1.58391       -0.09602       -0.88891
P         -1.60462       -0.04145       -0.79653
C          0.57466        0.21575       -2.40250
H          0.34165        1.28144       -2.46515
H          1.16836       -0.04362       -3.28483
C         -0.68087       -0.59851       -2.29344
H         -0.44534       -1.66017       -2.17919
H         -1.32811       -0.49268       -3.16981
C          2.60799       -1.61666       -1.20074
H          2.47813       -1.80650       -2.27493
C          2.95082        1.13667       -0.65568
H          3.02392        1.30352        0.42580
C         -3.02943       -1.16210       -0.41669
H         -3.24840       -0.99230        0.64506
C         -2.61560        1.44995       -1.23961
H         -2.03691        2.05701       -1.94653
C          4.05085       -1.14738       -0.94452
H          4.33964       -1.39658        0.08367
H          4.75291       -1.70053       -1.58664
C          4.19471        0.38310       -1.15634
H          4.33086        0.59559       -2.22570
H          5.10003        0.76644       -0.66131
C         -4.17095       -0.60597       -1.29595
H         -4.39394       -1.32940       -2.09282
H         -5.09572       -0.54141       -0.70362
C         -3.83327        0.78608       -1.91788
H         -4.70390        1.45620       -1.85957
H         -3.63032        0.66846       -2.99353
C          2.17084       -2.85038       -0.41132
H          2.76482       -3.71280       -0.74451
H          1.13738       -3.09387       -0.68979
C          2.69554        2.46152       -1.36388
H          3.61434        3.06394       -1.33915
H          2.50905        2.26640       -2.42781
C         -2.71355       -2.63467       -0.64420
H         -3.64191       -3.21801       -0.56911
H         -2.37206       -2.77099       -1.67817
C         -3.00316        2.27830       -0.01509
H         -3.84416        2.93359       -0.28189
H         -3.39932        1.60178        0.75355
C          2.27846       -2.72021        1.10115
H          3.31371       -2.61983        1.42948
H          1.86472       -3.59120        1.61485
H          1.74287       -1.84591        1.46764
C          1.54517        3.24570       -0.75356
H          1.36619        4.18844       -1.27550
H          1.74011        3.48062        0.29460
H          0.61833        2.67286       -0.78337
C         -1.68357       -3.17159        0.33670
H         -1.43439       -4.21743        0.14365
H         -2.04406       -3.10204        1.36479
H         -0.75900       -2.59672        0.28854
C         -1.87030        3.11780        0.55380
H         -2.19582        3.71672        1.40741
H         -1.04354        2.49718        0.89711
H         -1.47385        3.80548       -0.19541
Cl        -1.56282       -0.08955        2.40014
Pd         0.03509        0.08993        0.83710
