59
-75.79958051
Cl         1.64580        0.27470        2.41127
P          1.56424        0.01396       -0.85868
P         -1.59099       -0.22278       -0.72321
C          0.56316       -0.04968       -2.41426
H          0.29868        0.97028       -2.69653
H          1.18724       -0.45186       -3.21842
C         -0.67616       -0.87151       -2.18858
H         -0.42091       -1.91478       -1.98601
H         -1.34518       -0.85750       -3.05432
C          2.94541       -1.22384       -0.92181
H          2.85631       -1.75730       -1.87649
C          2.54061        1.57301       -0.57917
H          2.08532        2.09228        0.27354
C         -3.19165       -1.10302       -0.41703
H         -3.33482       -1.09803        0.67061
C         -2.24630        1.47995       -1.05463
H         -1.93607        1.74240       -2.07291
C          4.20797       -0.34002       -0.89369
H          5.02320       -0.87312       -0.38301
H          4.56629       -0.16426       -1.91877
C          3.93271        1.02330       -0.20658
H          4.70936        1.75587       -0.47096
H          4.00279        0.89905        0.88441
C         -4.21320       -0.16980       -1.08921
H         -4.30232       -0.44810       -2.14873
H         -5.21433       -0.32307       -0.65738
C         -3.77756        1.31577       -0.97386
H         -4.12468        1.71718       -0.01212
H         -4.27132        1.92951       -1.74207
C          2.88133       -2.21838        0.23259
H          2.81480       -1.65875        1.17473
H          3.83140       -2.76775        0.28980
C          2.56806        2.50101       -1.79793
H          3.47797        3.11588       -1.75677
H          2.67880        1.89145       -2.70411
C         -3.21406       -2.53582       -0.93665
H         -4.24990       -2.90280       -0.93065
H         -2.91470       -2.53727       -1.99253
C         -1.68536        2.47767       -0.04727
H         -2.00826        2.17975        0.95959
H         -0.59047        2.39791       -0.02613
C          1.72821       -3.20047        0.11306
H          0.77366       -2.67828        0.07241
H          1.68771       -3.89259        0.95720
H          1.80674       -3.79533       -0.79895
C          1.35657        3.41612       -1.90303
H          0.42668        2.85425       -1.97376
H          1.40962        4.06546       -2.77994
H          1.27310        4.05998       -1.02526
C         -2.32988       -3.47080       -0.12806
H         -1.29514       -3.13089       -0.12784
H         -2.34193       -4.49077       -0.51891
H         -2.64985       -3.51298        0.91482
C         -2.09976        3.91341       -0.33347
H         -1.67784        4.61330        0.39138
H         -1.77018        4.22880       -1.32519
H         -3.18483        4.02716       -0.30521
Cl        -1.49227       -0.54449        2.46823
Pd         0.06256       -0.18350        0.89113
