171
-217.83774151
P         -1.69554        0.68186        0.14303
P          1.52353       -0.19574       -0.23479
C         -0.87963        1.90010       -0.91659
C          0.71679       -0.74729       -1.75239
C         -0.11563        1.58070       -2.03352
C          0.57914        2.60928       -2.69716
C          0.44690        3.91343       -2.25157
C         -0.32653        4.21481       -1.15128
C         -0.97636        3.19929       -0.47651
C          0.81378       -2.05462       -2.16275
C          0.19496       -2.47040       -3.32470
C         -0.53197       -1.56852       -4.07286
C         -0.66337       -0.24984       -3.66865
C         -0.01281        0.17326       -2.49363
Cl         1.95180        1.06371        2.78144
Cl        -1.07104        0.42791        3.43698
C         -1.47459        0.70453       -4.47454
C          1.47844        2.32927       -3.85032
H         -0.41292        5.23350       -0.81015
H         -1.55839        3.41527        0.40733
H          1.36513       -2.76037       -1.56768
H          0.27471       -3.49760       -3.64123
H          0.96856        4.69684       -2.77494
H         -1.00867       -1.88847       -4.98373
C         -2.75616       -3.50146       -1.25202
C         -3.36637       -2.40707       -1.85387
C         -2.98558       -1.14001       -1.43097
C         -2.03094       -0.98204       -0.45677
C         -1.44639       -2.07789        0.13544
C         -1.79984       -3.36398       -0.25226
H         -3.05232       -4.48761       -1.55274
H         -3.46298       -0.26638       -1.83998
H         -0.72962       -1.93457        0.92458
C         -5.71613        2.41271        1.32060
C         -4.91779        1.85993        2.31601
C         -3.68345        1.34637        1.94639
C         -3.26899        1.38622        0.64086
C         -4.06719        1.93777       -0.33044
C         -5.31152        2.46455       -0.00895
H         -6.67456        2.81430        1.58739
H         -3.02610        0.92394        2.68463
H         -3.71187        1.96418       -1.34743
C          3.76633       -3.71799        1.60168
C          2.92753       -2.97266        2.41936
C          2.24884       -1.90519        1.85103
C          2.40976       -1.58229        0.52462
C          3.26916       -2.31677       -0.25750
C          3.94716       -3.41399        0.25911
H          4.30021       -4.55305        2.01458
H          1.60322       -1.31128        2.47029
H          3.40066       -2.03724       -1.28731
C          4.54657        3.01052       -1.29741
C          3.60570        3.28162       -0.31205
C          2.69318        2.28473        0.00659
C          2.72745        1.07237       -0.63537
C          3.65883        0.82556       -1.61341
C          4.59300        1.79186       -1.96437
H          5.26398        3.77144       -1.54052
H          1.94837        2.44710        0.76452
H          3.65298       -0.12560       -2.11608
Pd         0.14852        0.50237        1.55446
C         -5.82696       -2.12791       -2.17332
C         -4.51769       -2.55642       -2.85972
C         -4.66297       -4.01105       -3.34730
C         -4.26717       -1.66327       -4.08823
H         -6.02894       -2.75333       -1.30398
H         -5.76891       -1.09462       -1.83296
H         -6.67297       -2.21137       -2.85525
H         -3.73450       -4.36693       -3.79381
H         -4.93199       -4.67789       -2.52854
H         -5.44601       -4.08938       -4.10145
H         -4.21140       -0.61110       -3.81345
H         -3.33368       -1.93839       -4.57643
H         -5.07028       -1.77031       -4.81723
C         -1.60085       -4.47902        1.97675
C         -1.20820       -4.57248        0.49080
C          0.32410       -4.57046        0.35867
C         -1.73625       -5.90692       -0.07035
H         -1.21513       -3.56683        2.42985
H         -2.68493       -4.47194        2.08791
H         -1.20952       -5.32647        2.53911
H          0.74894       -3.64531        0.74122
H          0.76711       -5.39497        0.91698
H          0.62130       -4.67574       -0.68392
H         -1.48262       -6.01627       -1.12471
H         -1.29775       -6.75011        0.46335
H         -2.81854       -5.97791        0.03603
C         -6.73851        2.41213        4.00957
C         -5.34172        1.80014        3.79051
C         -4.32467        2.58365        4.64152
C         -5.37420        0.32996        4.24840
H         -7.02280        2.35975        5.06049
H         -6.75785        3.46129        3.71520
H         -7.49556        1.87708        3.43652
H         -4.60769        2.57536        5.69386
H         -3.32702        2.15340        4.56206
H         -4.26790        3.62167        4.31461
H         -5.69040        0.25196        5.28840
H         -6.06915       -0.24767        3.63924
H         -4.39144       -0.13246        4.16392
C         -7.51154        3.61521       -0.57754
C         -6.17673        3.07192       -1.12237
C         -6.48261        1.98894       -2.17403
C         -5.40963        4.23296       -1.78278
H         -8.11049        4.04466       -1.38058
H         -8.09950        2.82162       -0.11679
H         -7.34389        4.39722        0.16283
H         -7.10537        2.38723       -2.97483
H         -5.56821        1.60381       -2.62393
H         -7.01178        1.15132       -1.72025
H         -6.00650        4.69941       -2.56632
H         -5.16092        4.99745       -1.04696
H         -4.47957        3.88845       -2.23358
C          3.18880       -2.03893        4.72930
C          2.74001       -3.26676        3.91444
C          3.56849       -4.48502        4.36432
C          1.25440       -3.55625        4.19515
H          4.23227       -1.80144        4.52392
H          2.59286       -1.16079        4.48331
H          3.08700       -2.22138        5.79880
H          3.27392       -5.38193        3.81965
H          4.63320       -4.31610        4.20436
H          3.42192       -4.68116        5.42641
H          0.62857       -2.70286        3.93680
H          0.91534       -4.41302        3.61396
H          1.09270       -3.77914        5.24953
C          4.39675       -5.74967       -0.53910
C          4.86921       -4.28486       -0.60595
C          6.31007       -4.17574       -0.07661
C          4.85226       -3.84147       -2.08240
H          3.36553       -5.83668       -0.88119
H          5.01608       -6.38809       -1.16891
H          4.44613       -6.13853        0.47714
H          6.99343       -4.77558       -0.67745
H          6.65288       -3.14153       -0.10588
H          6.37898       -4.52171        0.95416
H          5.49241       -4.48425       -2.68652
H          3.84533       -3.89505       -2.49624
H          5.21718       -2.82093       -2.19129
C          3.43493        5.76821       -0.61532
C          3.61576        4.63562        0.41138
C          4.95959        4.80636        1.14278
C          2.48023        4.73252        1.44991
H          3.43116        6.74159       -0.12513
H          4.23763        5.76913       -1.35166
H          2.49168        5.65692       -1.14830
H          4.99146        5.75088        1.68557
H          5.11136        3.99937        1.85938
H          5.79500        4.79464        0.44372
H          2.49400        5.70093        1.94953
H          1.50520        4.61897        0.97729
H          2.58306        3.96491        2.21664
C          6.58469        0.36404       -2.45419
C          5.66265        1.46140       -3.01570
C          6.51786        2.69441       -3.36555
C          4.99086        0.95853       -4.30814
H          7.06970        0.70013       -1.53793
H          6.02180       -0.53857       -2.22035
H          7.36140        0.09965       -3.17151
H          5.89633        3.50718       -3.74117
H          7.06795        3.05229       -2.49555
H          7.24834        2.45171       -4.13726
H          4.32718        1.71793       -4.71979
H          5.73718        0.72129       -5.06615
H          4.40393        0.05833       -4.13086
H         -2.19616        0.18205       -5.10366
H          1.05568        2.71385       -4.77948
H         -0.83880        1.30165       -5.12884
H         -2.03075        1.38663       -3.82928
H          1.65345        1.25969       -3.97302
H          2.44828        2.80652       -3.70202
