105
-153.06191063
Cl         0.15984        3.51118        1.75609
Pd        -0.16938        1.92487        0.19911
P         -0.70862        0.20427       -1.34640
N          0.15861       -1.23289       -1.91787
C          0.23916       -2.54400       -1.45825
C         -0.11123       -2.96923       -0.14759
C          0.19745       -4.28702        0.25600
C          0.01061       -4.67272        1.70586
C          0.80739       -5.91827        2.12005
C          0.59148       -7.05093        1.11235
C          1.04971       -6.63063       -0.29376
C          0.72281       -5.20202       -0.65896
C          0.98890       -4.78252       -1.95532
C          0.77145       -3.48499       -2.33927
H          1.02458       -3.17227       -3.33759
H          1.40148       -5.48845       -2.65637
H          2.13411       -6.76850       -0.38176
H          1.10945       -7.96453        1.43672
H          1.87496       -5.66865        2.16331
H          0.28971       -3.82040        2.33840
C         -0.70699       -2.05675        0.86548
C          0.11817       -1.05780        1.44621
C         -0.34391       -0.34820        2.55520
C         -1.59793       -0.58457        3.05550
C         -2.44479       -1.52423        2.47457
C         -3.80971       -1.72319        3.09224
C         -4.75287       -2.65563        2.31010
C         -3.98713       -3.81384        1.66227
C         -2.91017       -3.27030        0.71392
C         -2.00051       -2.26640        1.37626
H         -2.32459       -4.08865        0.27980
H         -4.67101       -4.49386        1.13487
H         -5.26563       -2.08330        1.52775
H         -4.27792       -0.73924        3.22288
H         -1.94857       -0.02466        3.90586
H          0.28325        0.40811        2.99026
N          1.27993       -0.70741        0.76382
P          1.81131        0.92260        0.95957
C          2.90031        1.39212       -0.37737
C          3.39504        0.43192       -1.22722
C          4.15123        0.81129       -2.32138
C          4.40294        2.15333       -2.57465
C          3.90053        3.10612       -1.69792
C          3.14449        2.72570       -0.60392
H          2.71527        3.46039        0.05950
H          4.09449        4.14862       -1.88369
C          5.22194        2.56064       -3.74962
H          4.54350        0.06563       -2.99163
H          3.17910       -0.60754       -1.04071
C          2.63738        1.04137        2.54588
C          3.48320        0.01826        2.90244
C          4.13960        0.06194        4.12017
C          3.95520        1.13384        4.98353
C          3.08729        2.15082        4.60907
C          2.43362        2.10360        3.39293
H          1.75132        2.88375        3.10225
H          2.92399        2.97814        5.27845
C          4.63939        1.17032        6.30576
H          4.79756       -0.74013        4.40794
H          3.61608       -0.81435        2.22901
H          1.13391       -0.84384       -0.23593
H          0.39322       -1.07158       -2.88956
C         -0.57737        1.31796       -2.75397
C         -1.67340        1.69679       -3.49115
C         -1.51741        2.56189       -4.55837
C         -0.26139        3.04638       -4.89901
C          0.83212        2.65624       -4.13846
C          0.67216        1.79117       -3.07184
H          1.51850        1.49290       -2.47615
H          1.80899        3.03844       -4.38049
C         -0.09735        4.00366       -6.02764
H         -2.37457        2.87231       -5.13112
H         -2.64888        1.32714       -3.22201
C         -2.44120       -0.22417       -1.18433
C         -3.24556        0.33875       -0.22216
C         -4.58785        0.01248       -0.17143
C         -5.13479       -0.87717       -1.08693
C         -4.30829       -1.43099       -2.05463
C         -2.96383       -1.10602       -2.10017
H         -2.31469       -1.53818       -2.84552
H         -4.72286       -2.12255       -2.76803
C         -6.57774       -1.24165       -1.03689
H         -5.21988        0.45259        0.58075
H         -2.82563        1.03709        0.48282
Cl        -1.87485        3.11939       -0.65400
H          0.60954       -7.29412       -1.04915
H          0.53686       -6.23964        3.13586
H         -0.47421       -7.31153        1.08601
H         -1.05349       -4.84464        1.89896
H         -3.51213       -4.41832        2.44490
H         -3.39220       -2.78539       -0.14060
H         -3.66988       -2.11458        4.10708
H         -5.55190       -3.03657        2.96157
H          4.95171        3.56104       -4.09067
H          6.28355        2.56549       -3.49900
H          5.07612        1.87611       -4.58648
H          4.02025        0.70675        7.07499
H          5.59041        0.63693        6.27229
H          4.84664        2.19626        6.61333
H         -0.83723        3.82231       -6.80849
H         -0.21658        5.03164       -5.68280
H          0.89092        3.91303       -6.48064
H         -7.08035       -0.96430       -1.96449
H         -6.70194       -2.31618       -0.89447
H         -7.08872       -0.73550       -0.21675
