105
-153.06038154
Cl         0.51807        3.78516        1.36695
Pd        -0.10663        1.98980        0.15868
P         -0.69597        0.20551       -1.30033
N          0.17138       -1.21687       -1.91033
C          0.25208       -2.53691       -1.47784
C         -0.10320       -2.98923       -0.17713
C          0.20236       -4.31680        0.19711
C          0.04320       -4.74061        1.63945
C         -0.11723       -6.25727        1.81335
C          1.00924       -6.99725        1.08600
C          1.01144       -6.66106       -0.41487
C          0.72997       -5.21175       -0.73719
C          1.00000       -4.76440       -2.02318
C          0.78747       -3.45796       -2.37770
H          1.04289       -3.12335       -3.36833
H          1.40455       -5.45718       -2.74178
H          1.97488       -6.93876       -0.86118
H          1.97279       -6.70999        1.52553
H         -0.14755       -6.53211        2.87724
H          0.92595       -4.39928        2.19345
C         -0.70930       -2.09466        0.84567
C          0.09861       -1.08597        1.43228
C         -0.38486       -0.37458        2.53075
C         -1.63934       -0.62669        3.02203
C         -2.46691       -1.58278        2.44017
C         -3.82987       -1.80597        3.05360
C         -4.75183       -2.75927        2.27146
C         -3.96261       -3.90495        1.62975
C         -2.88903       -3.34762        0.68550
C         -2.00469       -2.31937        1.34563
H         -2.28128       -4.16109        0.27278
H         -4.63257       -4.59684        1.09988
H         -5.27383       -2.20019        1.48579
H         -4.31754       -0.83091        3.17949
H         -2.00445       -0.06919        3.86788
H          0.22916        0.39011        2.96980
N          1.27190       -0.73542        0.76997
P          1.79965        0.89384        0.95823
C          2.92847        1.33940       -0.35510
C          3.14787        2.66941       -0.62405
C          3.93540        3.03006       -1.70177
C          4.50323        2.05902       -2.51625
C          4.25620        0.72142       -2.23553
C          3.46927        0.36242       -1.15621
H          3.26244       -0.67425       -0.94501
H          4.67630       -0.03725       -2.87355
C          5.31708        2.44515       -3.70182
H          4.09981        4.07004       -1.92626
H          2.66151        3.41473       -0.01432
C          2.55687        1.05107        2.57405
C          3.28442       -0.01317        3.05052
C          3.87809        0.06403        4.29831
C          3.73863        1.20545        5.07692
C          3.00524        2.27169        4.57359
C          2.41436        2.19092        3.32737
H          1.83497        3.00944        2.93562
H          2.89993        3.16555        5.16445
C          4.39680        1.29964        6.40948
H          4.45315       -0.76447        4.67506
H          3.37476       -0.90200        2.44561
H          1.14248       -0.86634       -0.23220
H          0.40537       -1.03503       -2.87847
C         -0.56636        1.35121       -2.68291
C          0.69597        1.73443       -3.06827
C          0.85607        2.62595       -4.11300
C         -0.24925        3.13302       -4.78233
C         -1.51644        2.73998       -4.37201
C         -1.67384        1.84884       -3.32677
H         -2.65673        1.55068       -3.00124
H         -2.38049        3.14254       -4.87249
C         -0.08067        4.11783       -5.88632
H          1.84286        2.93961       -4.40754
H          1.55219        1.35171       -2.53715
C         -2.42560       -0.24100       -1.15850
C         -3.22990        0.25536       -0.16090
C         -4.57002       -0.08146       -0.12591
C         -5.11365       -0.92063       -1.08964
C         -4.28582       -1.41320       -2.08872
C         -2.94463       -1.07351       -2.12127
H         -2.29522       -1.45621       -2.89299
H         -4.69735       -2.06690       -2.83866
C         -6.55341       -1.29924       -1.05563
H         -5.20238        0.30987        0.65247
H         -2.80849        0.90639        0.58740
Cl        -2.04400        3.02844       -0.31475
H          0.26468       -7.27784       -0.92924
H         -1.08435       -6.56925        1.39937
H          0.92656       -8.08193        1.24374
H         -0.80098       -4.21768        2.10117
H         -3.48193       -4.50104        2.41551
H         -3.37014       -2.88402       -0.18184
H         -3.68605       -2.19119        4.07025
H         -5.54516       -3.15346        2.92205
H          6.09549        1.70747       -3.90163
H          4.69126        2.52389       -4.59188
H          5.80576        3.40820       -3.54780
H          5.40330        1.70968        6.31605
H          3.83147        1.94517        7.08309
H          4.47516        0.31867        6.88026
H          0.86292        3.96317       -6.41151
H         -0.88489        4.03041       -6.61818
H         -0.08714        5.13752       -5.49893
H         -7.05452       -1.00276       -1.97812
H         -6.66830       -2.37816       -0.94141
H         -7.07263       -0.81862       -0.22537
