111
-148.54953687
P         -2.72883        1.91930       -0.38800
P          0.03861        0.51646        0.27032
C         -1.94190        2.18386        1.22576
C         -0.70649        1.62739        1.47735
C         -3.63821        3.43753       -0.93647
C         -2.85128        4.26207       -1.93140
C         -2.56493        2.93716        2.20067
H         -3.54103        3.35270        2.01273
C         -1.94167        3.13896        3.42024
H         -2.42835        3.72708        4.18109
C         -0.69916        2.58651        3.66504
H         -0.21579        2.74107        4.61564
C         -0.08151        1.82273        2.69123
H          0.87803        1.36365        2.87238
Pd        -1.13390        0.87212       -1.70184
Cl        -2.20489        1.59417       -3.52638
Cl         0.57609       -0.21529       -2.68478
C         -4.96155        2.85759       -1.46596
C         -4.12145        0.69720       -0.36909
H         -3.39464        5.16484       -2.21959
H         -1.88529        4.56359       -1.51988
H         -2.65639        3.69535       -2.84143
H         -4.84490        2.63161       -2.53497
H         -5.76272        3.61018       -1.40696
H         -3.91847       -0.00652       -1.18751
C         -5.35402        1.56120       -0.70027
C         -4.19817       -0.02903        0.95638
H         -3.82679        4.02468       -0.02896
H         -5.85850        1.83070        0.23769
H         -6.08982        0.97580       -1.27206
H         -4.33034        0.67739        1.77801
H         -5.03644       -0.72919        0.98111
H         -3.28325       -0.59191        1.15211
C         -1.23453       -3.74730        1.26643
C         -0.60338       -3.46728        0.02554
C         -0.24862       -2.15757       -0.24467
C         -0.42096       -1.16682        0.68432
C         -0.90715       -1.45728        1.93213
C         -1.28745       -2.74474        2.27113
O         -1.88450       -4.99197        1.46780
C         -0.27899       -4.53003       -1.03711
H          0.15516       -1.88700       -1.20444
H         -1.00271       -0.65739        2.64559
C         -1.73443       -3.00279        3.71970
C          4.56217        0.95700        0.02731
C          3.72782        1.87033       -0.66715
C          2.35482        1.73175       -0.54308
C          1.81390        0.69173        0.16554
C          2.61423       -0.25638        0.74752
C          3.99415       -0.17533        0.66487
O          5.95990        1.19461        0.11253
C          4.29062        3.00210       -1.54110
H          1.68374        2.43436       -1.00687
H          2.14081       -1.06993        1.26955
C          4.84624       -1.30083        1.27205
C         -0.40322       -5.96306       -0.49168
C         -1.22171       -4.35314       -2.23907
C          1.18135       -4.35095       -1.50791
C         -3.12239       -2.38022        3.94512
C         -1.78188       -4.50249        4.05961
C         -0.72462       -2.35150        4.69067
C         -3.23789       -4.97623        1.04497
H          0.20504       -6.08741        0.40356
H         -1.43236       -6.19780       -0.23054
H         -0.07554       -6.69431       -1.23024
H         -2.26177       -4.48081       -1.94469
H         -1.11871       -3.35869       -2.67225
H         -1.00077       -5.08239       -3.01793
H          1.33418       -3.39222       -2.00053
H          1.86611       -4.40839       -0.66248
H          1.45874       -5.12905       -2.21848
H         -3.45857       -2.53917        4.96938
H         -3.10220       -1.30621        3.76257
H         -3.86263       -2.81704        3.27739
H         -2.00545       -4.65954        5.11457
H         -2.54814       -5.01357        3.48158
H         -0.82596       -4.97667        3.83996
H          0.28379       -2.71698        4.49832
H         -0.71341       -1.26690        4.59655
H         -0.97514       -2.58433        5.72533
H         -3.79483       -4.22428        1.60176
H         -3.29510       -4.73986       -0.01644
H         -3.68103       -5.95668        1.22062
C          6.34628        1.97538        1.23635
C          5.62493        2.58943       -2.18902
C          3.31532        3.33444       -2.69365
C          4.48617        4.26065       -0.68278
C          5.14055       -0.97823        2.74459
C          4.09459       -2.65001        1.20052
C          6.16285       -1.48107        0.49469
H          5.50462        1.67036       -2.76158
H          5.98992        3.36410       -2.86287
H          6.39326        2.41710       -1.43934
H          3.76698        4.03793       -3.39263
H          3.05041        2.43446       -3.24811
H          2.39833        3.79301       -2.32681
H          4.87297        5.08509       -1.28122
H          3.54110        4.57729       -0.24216
H          5.18551        4.07839        0.12974
H          5.73770       -1.76498        3.20490
H          5.68567       -0.04218        2.84118
H          4.21421       -0.88228        3.31059
H          4.74142       -3.47059        1.51002
H          3.22485       -2.66459        1.85571
H          3.76133       -2.85203        0.18301
H          5.96286       -1.66364       -0.56061
H          6.73517       -2.32337        0.88257
H          6.79046       -0.59630        0.56664
H          7.03087        1.40281        1.86185
H          6.86405        2.87240        0.89704
H          5.47077        2.25976        1.82142
