111
-148.54964653
P         -2.61027        2.13578        0.59043
P          0.12104        0.51969        0.38774
C         -1.48916        2.05448        2.01783
C         -0.28672        1.38996        1.90990
C         -3.55610        3.72892        0.60110
C         -3.44316        4.45404       -0.72147
C         -1.83958        2.64488        3.21568
H         -2.78816        3.14827        3.30489
C         -0.97938        2.57423        4.29801
H         -1.25361        3.03528        5.23282
C          0.22765        1.91178        4.18319
H          0.89590        1.85437        5.02657
C          0.57334        1.31328        2.98498
H          1.50391        0.77709        2.88104
Pd        -1.34941        1.36475       -1.19352
Cl        -3.05542        1.92430       -2.52880
Cl         0.09807        0.57038       -2.72060
C         -4.99026        3.27551        0.94570
C         -4.00253        0.92111        0.69312
H         -3.96792        5.41211       -0.70047
H         -2.39972        4.64402       -0.98348
H         -3.88132        3.85895       -1.52366
H         -5.71363        3.95478        0.47139
H         -5.16304        3.36897        2.02796
H         -3.88163        0.22730       -0.15039
C         -5.25209        1.80647        0.50896
C         -3.96350        0.16876        2.00514
H         -3.12988        4.34446        1.40455
H         -6.09276        1.37774        1.07373
H         -5.56536        1.79268       -0.54541
H         -3.01940       -0.36737        2.12291
H         -4.05789        0.85709        2.84711
H         -4.77651       -0.55770        2.07674
C         -1.08955       -3.86418        0.63588
C         -1.01118       -3.09706        1.82692
C         -0.63703       -1.76729        1.72790
C         -0.41624       -1.18595        0.50710
C         -0.59231       -1.89645       -0.64986
C         -0.97171       -3.22630       -0.62525
O         -1.24155       -5.27442        0.70809
C         -1.27779       -3.69998        3.21506
H         -0.49462       -1.16837        2.60978
H         -0.40895       -1.39108       -1.58184
C         -1.21694       -3.95152       -1.95709
C          4.54473        0.68318       -0.68450
C          3.75871        1.86384       -0.76736
C          2.42570        1.79389       -0.39413
C          1.85709        0.60094       -0.03272
C          2.58031       -0.56275       -0.07363
C          3.91613       -0.56570       -0.43675
O          5.95849        0.76008       -0.77353
C          4.29404        3.21055       -1.28279
H          1.81046        2.67795       -0.38791
H          2.08404       -1.48447        0.17820
C          4.61852       -1.92655       -0.58026
C         -2.34428       -4.80790        3.14230
C          0.03377       -4.26377        3.78236
C         -1.81317       -2.62518        4.18824
C          0.10979       -4.52995       -2.47204
C         -2.26075       -5.07156       -1.79789
C         -1.77094       -2.96783       -3.01400
C         -0.01076       -5.98685        0.73063
H         -2.00444       -5.64677        2.53998
H         -2.58097       -5.18992        4.13504
H         -3.26300       -4.42727        2.69719
H         -0.12010       -4.68802        4.77423
H          0.43646       -5.04483        3.14196
H          0.78683       -3.48013        3.86305
H         -2.69027       -2.12937        3.77422
H         -2.10271       -3.07458        5.13789
H         -1.06201       -1.86851        4.40948
H          0.83926       -3.73618       -2.63081
H          0.53614       -5.23372       -1.76095
H         -0.03248       -5.05088       -3.41846
H         -2.48079       -5.54138       -2.75617
H         -1.91018       -5.84876       -1.12367
H         -3.19092       -4.67384       -1.39344
H         -1.02708       -2.22952       -3.30923
H         -2.06997       -3.49838       -3.91757
H         -2.64364       -2.43910       -2.63157
H          0.04849       -6.64517       -0.13584
H          0.83115       -5.29336        0.71814
H          0.03819       -6.60169        1.62925
C          6.57733        0.96961        0.48453
C          3.29199        3.80443       -2.29784
C          4.45524        4.18303       -0.10318
C          5.63947        3.06367       -2.01488
C          4.88718       -2.51470        0.81444
C          3.70630       -2.89401       -1.36842
C          5.94122       -1.81940       -1.35849
H          3.68584        4.71686       -2.74479
H          3.09305        3.09493       -3.10057
H          2.34219        4.05695       -1.82971
H          3.50643        4.33182        0.41139
H          5.17131        3.80383        0.62350
H          4.80770        5.15559       -0.44574
H          5.95265        4.00973       -2.45582
H          6.42487        2.74186       -1.33502
H          5.56419        2.32471       -2.81186
H          5.35808       -3.49456        0.73941
H          5.54570       -1.86981        1.39316
H          3.95892       -2.63041        1.37335
H          2.79537       -3.12931       -0.82044
H          3.42119       -2.45864       -2.32577
H          4.21692       -3.83618       -1.56594
H          6.67205       -1.22689       -0.81303
H          5.78025       -1.34366       -2.32527
H          6.37681       -2.80326       -1.53112
H          7.65827        1.01508        0.35030
H          6.22897        1.90435        0.92103
H          6.33259        0.15299        1.16181
