111
-148.55587371
P         -1.70979        2.82680        0.13053
P         -0.51898       -0.07302        0.52645
C         -1.61043        2.11092        1.79537
C         -1.16240        0.81679        1.95707
C         -0.59923        4.29509       -0.03624
C          0.47791        4.02518       -1.06618
C         -1.96055        2.85999        2.90049
H         -2.27862        3.88155        2.77126
C         -1.88221        2.30127        4.16454
H         -2.15914        2.88456        5.02751
C         -1.44494        0.99995        4.32211
H         -1.37885        0.56720        5.30677
C         -1.07392        0.25832        3.21491
H         -0.69876       -0.74701        3.32272
Pd        -1.33460        1.06672       -1.31193
Cl        -2.41317        2.14191       -2.95396
Cl        -0.81251       -0.73759       -2.55003
C         -1.56392        5.43607       -0.42076
C         -3.34703        3.61771       -0.21626
H          1.13319        4.88971       -1.19653
H          1.09642        3.16999       -0.78489
H          0.03253        3.79759       -2.03692
H         -1.50015        5.59822       -1.50545
H         -1.23831        6.38277        0.03598
H         -3.56571        3.40535       -1.27089
C         -3.03704        5.11472       -0.03790
C         -4.45207        3.07965        0.66757
H         -0.16678        4.46646        0.95820
H         -3.21680        5.39329        1.00953
H         -3.73891        5.72322       -0.62866
H         -4.24629        3.27779        1.71991
H         -5.41281        3.54186        0.42962
H         -4.55844        1.99845        0.55304
C         -0.86412       -4.60857        0.59120
C          0.15049       -3.96745        1.34750
C          0.22487       -2.58472        1.30465
C         -0.70695       -1.84844        0.62025
C         -1.75787       -2.45748       -0.01313
C         -1.88441       -3.83676       -0.02129
O         -0.83290       -6.01678        0.40911
C          1.18891       -4.74441        2.17176
H          1.03218       -2.06108        1.78781
H         -2.46357       -1.83626       -0.53743
C         -3.08170       -4.47046       -0.74602
C          3.80296        1.18141       -0.16266
C          3.25907        0.09222       -0.89088
C          1.93779       -0.25281       -0.66359
C          1.19903        0.37886        0.30038
C          1.74823        1.36681        1.07502
C          3.06135        1.76701        0.89557
O          5.07170        1.71234       -0.51710
C          4.05769       -0.69149       -1.94342
H          1.45099       -1.00254       -1.26291
H          1.12912        1.83455        1.81968
C          3.65445        2.83568        1.82769
C          1.63176       -3.92036        3.40230
C          0.60286       -6.06409        2.70584
C          2.42241       -5.02566        1.30027
C         -4.31474       -3.54084       -0.67922
C         -2.71683       -4.69318       -2.22183
C         -3.48890       -5.80262       -0.09094
C         -0.07405       -6.43588       -0.71856
H          2.27037       -4.51418        4.05590
H          2.20199       -3.03851        3.11434
H          0.76811       -3.59630        3.98244
H         -0.29816       -5.87548        3.28856
H          0.33990       -6.73911        1.89546
H          1.31852       -6.58050        3.34509
H          2.86866       -4.09405        0.95354
H          3.17940       -5.57422        1.86016
H          2.16084       -5.61329        0.42350
H         -4.16874       -2.63435       -1.26465
H         -5.19720       -4.03983       -1.07905
H         -4.52938       -3.25496        0.35013
H         -2.45147       -3.74978       -2.69861
H         -1.86636       -5.36334       -2.32087
H         -3.55285       -5.12614       -2.77037
H         -4.37685       -6.21796       -0.56687
H         -2.69701       -6.54303       -0.17078
H         -3.70646       -5.65916        0.96690
H         -0.71118       -7.00119       -1.39851
H          0.33909       -5.57209       -1.24112
H          0.73767       -7.08629       -0.39322
C          5.01554        2.73595       -1.50282
C          5.55556       -0.73176       -1.59102
C          3.57286       -2.15833       -2.00997
C          3.85155       -0.04330       -3.32077
C          3.43275        4.22966        1.22181
C          2.97159        2.79143        3.21384
C          5.15698        2.59140        2.05699
H          5.70425       -1.15244       -0.59707
H          6.10963       -1.34175       -2.30404
H          5.99308        0.26321       -1.60013
H          3.58583       -2.61504       -1.02091
H          2.56219       -2.23299       -2.40827
H          4.21689       -2.74979       -2.66028
H          2.79582       -0.04275       -3.59124
H          4.19418        0.98872       -3.32620
H          4.39784       -0.58433       -4.09291
H          2.36921        4.43790        1.11359
H          3.86252        5.00378        1.85698
H          3.88890        4.31073        0.23835
H          1.93184        3.11157        3.16140
H          3.00058        1.78423        3.62872
H          3.47551        3.45679        3.91450
H          5.56676        3.30833        2.76802
H          5.71957        2.68779        1.13157
H          5.32737        1.58928        2.44903
H          3.98065        2.94366       -1.77794
H          5.47803        3.64273       -1.11323
H          5.57057        2.42446       -2.38744
