105
-153.06011645
Cl         0.26843        3.46463        1.81611
Pd        -0.15644        1.91516        0.24086
P         -0.74449        0.23677       -1.32995
N          0.09061       -1.19169       -1.96797
C          0.18400       -2.51493       -1.54775
C         -0.12381       -2.97103       -0.23744
C          0.23023       -4.28547        0.13873
C          0.13530       -4.68237        1.59522
C          0.97655       -5.91631        1.95321
C          0.72946       -7.04390        0.94680
C          1.10664       -6.60301       -0.47697
C          0.73683       -5.17705       -0.80950
C          0.94426       -4.73413       -2.10921
C          0.69632       -3.43332       -2.46372
H          0.91250       -3.09967       -3.46395
H          1.34122       -5.42261       -2.83612
H          2.18720       -6.72103       -0.62246
H          1.27983       -7.95060        1.23518
H          2.03999       -5.64634        1.94265
H          0.43992       -3.82829        2.21355
C         -0.72154       -2.08944        0.80062
C          0.10388       -1.10771        1.40832
C         -0.35658       -0.43200        2.53875
C         -1.60881       -0.68855        3.03432
C         -2.45249       -1.61339        2.42514
C         -3.82014       -1.83849        3.01361
C         -4.41841       -3.19724        2.62191
C         -4.35209       -3.39016        1.10401
C         -2.90540       -3.31192        0.58463
C         -2.01668       -2.31662        1.29862
H         -2.44920       -4.30495        0.64205
H         -4.95538       -2.61307        0.62150
H         -5.45114       -3.29316        2.98624
H         -4.48279       -1.03095        2.68067
H         -1.96151       -0.15274        3.89913
H          0.26913        0.31374        2.99382
N          1.26196       -0.73988        0.72892
P          1.81299        0.87515        0.98407
C          2.89923        1.38418       -0.34080
C          3.14448        2.72403       -0.52517
C          3.89683        3.13867       -1.60912
C          4.39376        2.21397       -2.51844
C          4.14001        0.86478       -2.30829
C          3.38766        0.45116       -1.22391
H          3.16935       -0.59327       -1.07067
H          4.52784        0.14073       -3.00430
C          5.20916        2.65844       -3.68238
H          4.09179        4.18635       -1.76176
H          2.71634        3.43708        0.16211
C          2.64579        0.92345        2.57084
C          3.45667       -0.13739        2.89716
C          4.11861       -0.14836        4.11259
C          3.97499        0.90653        5.00417
C          3.14151        1.96240        4.66022
C          2.48219        1.96955        3.44618
H          1.82726        2.78071        3.17856
H          3.00962        2.77727        5.35142
C          4.66572        0.88450        6.32333
H          4.74942       -0.97990        4.37651
H          3.55785       -0.95632        2.20181
H          1.10853       -0.84414       -0.27391
H          0.29055       -1.00562       -2.94297
C         -0.61037        1.39881       -2.69779
C         -1.70791        1.82047       -3.40902
C         -1.54915        2.72005       -4.44688
C         -0.29066        3.20610       -4.77585
C          0.80666        2.75858       -4.05325
C          0.64417        1.85891       -3.01598
H          1.49285        1.52178       -2.44455
H          1.78899        3.12132       -4.30298
C         -0.11721        4.16012       -5.90590
H         -2.40562        3.05411       -5.00721
H         -2.68589        1.45403       -3.14467
C         -2.48287       -0.16459       -1.16149
C         -3.03158       -1.00843       -2.09757
C         -4.38488       -1.29494       -2.05869
C         -5.19472       -0.73976       -1.07744
C         -4.62198        0.11201       -0.14267
C         -3.27002        0.39716       -0.18445
H         -2.83039        1.06833        0.53475
H         -5.24385        0.55863        0.61414
C         -6.65606       -1.02490       -1.05021
H         -4.82016       -1.95045       -2.79339
H         -2.39673       -1.43646       -2.85745
Cl        -1.86745        3.16868       -0.50845
H          0.63903       -7.26688       -1.21532
H          0.76665       -6.25263        2.97847
H         -0.33129       -7.32392        0.97286
H         -0.91066       -4.87177        1.85627
H         -4.81919       -4.34157        0.81332
H         -2.90287       -3.06642       -0.48426
H         -3.76436       -1.74426        4.10562
H         -3.85397       -3.99873        3.11501
H          6.27062        2.66695       -3.43120
H          5.07003        1.99411       -4.53647
H          4.92954        3.66461       -3.99794
H          4.04192        0.40527        7.07905
H          5.60682        0.33577        6.26606
H          4.89283        1.89511        6.66563
H          0.02196        3.62554       -6.84653
H         -0.98923        4.80701       -6.01152
H          0.75216        4.80054       -5.75055
H         -7.05715       -0.93376       -0.03973
H         -7.19804       -0.32829       -1.69117
H         -6.86587       -2.03698       -1.39940
