75
-122.81125946
P          1.81863       -0.56793        0.01552
C          3.13195       -1.22244       -1.02739
C          2.89667       -1.58806       -2.33290
C          3.92561       -2.10389       -3.09887
C          5.18287       -2.25792       -2.54951
C          5.41239       -1.90159       -1.23558
C          4.38084       -1.38547       -0.47193
H          4.54054       -1.11669        0.56077
H          6.39182       -2.02699       -0.80404
H          5.98561       -2.65885       -3.14662
H          3.74562       -2.38256       -4.12418
H          1.91244       -1.46239       -2.75348
C          1.69404       -1.65467        1.43981
C          1.64885       -1.13600        2.71334
C          1.64363       -1.98727        3.80279
C          1.68176       -3.35373        3.60749
C          1.72099       -3.87019        2.32737
C          1.72951       -3.01559        1.23948
H          1.77809       -3.40207        0.23353
H          1.74745       -4.93656        2.17487
H          1.67336       -4.01860        4.45569
H          1.60384       -1.58399        4.80123
H          1.60963       -0.06764        2.84845
C          2.21102        1.10813        0.54700
C          3.40193        1.73661        0.26737
C          3.59323        3.06971        0.60323
C          2.54051        3.76917        1.19195
C          1.33638        3.15668        1.45956
C          1.17053        1.79654        1.15356
O         -0.04459        1.13844        1.40755
C         -1.20665        1.84090        1.04390
C         -1.33924        3.21250        1.31261
C         -2.47549        3.87467        0.90412
C         -3.49144        3.21223        0.21613
C         -3.33811        1.86108       -0.06221
C         -2.22046        1.18127        0.36348
P         -1.86004       -0.54227       -0.02525
C         -1.69136       -1.50595        1.48614
C         -1.67430       -2.87823        1.38239
C         -1.64074       -3.65508        2.52660
C         -1.62858       -3.05091        3.76803
C         -1.64407       -1.67398        3.86795
C         -1.67708       -0.90130        2.72229
H         -1.68473        0.17384        2.78629
H         -1.62687       -1.20124        4.83613
H         -1.59955       -3.65486        4.66020
H         -1.62526       -4.72963        2.44783
H         -1.70335       -3.33588        0.40607
C         -3.20318       -1.33313       -0.92645
C         -4.49198       -1.19782       -0.46226
C         -5.52923       -1.84124       -1.11296
C         -5.26575       -2.62909       -2.21572
C         -3.96844       -2.78258       -2.66243
C         -2.93389       -2.13841       -2.00890
H         -1.91517       -2.25453       -2.34317
H         -3.76089       -3.40261       -3.51900
H         -6.07303       -3.13000       -2.72470
H         -6.53995       -1.73147       -0.75566
H         -4.67943       -0.60626        0.41996
Pd         0.00841        0.07375       -1.36669
Cl        -1.54674        0.26266       -2.97828
Cl         1.56272        1.20946       -2.53294
H         -4.08550        1.34874       -0.64123
C         -4.68809        3.95177       -0.26618
H         -4.91971        4.79466        0.38621
H         -5.56511        3.30377       -0.29469
H         -4.52284        4.33919       -1.27226
H         -2.56903        4.92669        1.10813
S         -0.02559        4.04891        2.16346
H          2.66009        4.81196        1.42742
C          4.86999        3.75650        0.27274
H          4.18015        1.19802       -0.24370
H          5.06974        4.57277        0.96809
H          5.71210        3.06494        0.32217
H          4.83451        4.17247       -0.73489
