111
-148.55462715
P         -2.52372        2.10485        0.87579
P          0.10503        0.37782        0.52912
C         -1.47129        1.76901        2.31432
C         -0.30436        1.05513        2.14782
C         -3.27796        3.79328        0.95923
C         -2.59860        4.75610        0.01013
C         -1.83120        2.21388        3.57044
H         -2.75504        2.75300        3.70107
C         -1.01228        1.95071        4.65511
H         -1.29231        2.29826        5.63614
C          0.16132        1.24190        4.48303
H          0.79761        1.03579        5.32791
C          0.51443        0.78816        3.22485
H          1.41868        0.21915        3.07423
Pd        -1.28323        1.46551       -0.96223
Cl        -2.82319        2.42897       -2.27818
Cl         0.01799        0.78820       -2.66657
C         -4.76132        3.51819        0.65065
C         -4.05184        1.06304        0.81492
H         -3.04469        5.75187        0.06445
H         -1.53310        4.84817        0.23381
H         -2.68742        4.41278       -1.02117
H         -4.92420        3.63745       -0.42941
H         -5.40067        4.27405        1.13169
H         -4.11832        0.68109       -0.21270
C         -5.17638        2.08159        1.08030
C         -3.98059       -0.07651        1.80819
H         -3.16332        4.13378        1.99608
H         -5.41386        2.07464        2.15299
H         -6.10172        1.77149        0.57144
H         -4.89232       -0.67818        1.79291
H         -3.13697       -0.73561        1.59220
H         -3.84888        0.30205        2.82354
C         -1.20085       -3.97280        0.18562
C         -1.15988       -3.35725        1.46349
C         -0.74571       -2.03813        1.54424
C         -0.45945       -1.31892        0.41392
C         -0.61071       -1.87640       -0.82776
C         -1.01310       -3.19042       -0.98196
O         -1.38943       -5.37645        0.07921
C         -1.52400       -4.10903        2.75327
H         -0.63160       -1.55441        2.49803
H         -0.39648       -1.26073       -1.68376
C         -1.20251       -3.74589       -2.40164
C          4.47247        0.76472       -0.69381
C          3.81150       -0.48430       -0.81120
C          2.48377       -0.55863       -0.42820
C          1.83838        0.52140        0.11424
C          2.50032        1.70260        0.32311
C          3.83272        1.84428       -0.03113
O          5.75578        0.94611       -1.27457
C          4.48736       -1.73803       -1.38785
H          1.92542       -1.46712       -0.56854
H          1.95352        2.52124        0.75871
C          4.54988        3.16903        0.27273
C         -0.26707       -4.78716        3.31867
C         -2.07929       -3.13478        3.81726
C         -2.62013       -5.15771        2.49079
C         -2.27570       -4.84891       -2.42984
C         -1.67841       -2.63081       -3.36159
C          0.13833       -4.29438       -2.91343
C         -0.17908       -6.12323        0.08326
H         -0.49221       -5.31778        4.24346
H          0.14541       -5.50380        2.61259
H          0.50586       -4.04915        3.53206
H         -2.44568       -3.68033        4.68658
H         -1.31515       -2.44498        4.17235
H         -2.90807       -2.55277        3.41564
H         -2.92522       -5.64595        3.41599
H         -3.49916       -4.69098        2.04747
H         -2.27386       -5.93117        1.80964
H         -3.21778       -4.47731       -2.02812
H         -2.45405       -5.19634       -3.44716
H         -1.97708       -5.70925       -1.83640
H         -1.94048       -3.04397       -4.33522
H         -2.55857       -2.12631       -2.96391
H         -0.90398       -1.88421       -3.53042
H          0.03715       -4.69516       -3.92163
H          0.89175       -3.50740       -2.93765
H          0.51083       -5.08879       -2.27089
H          0.67756       -5.45959        0.20825
H         -0.20031       -6.84720        0.89773
H         -0.08114       -6.66909       -0.85488
C          5.72014        1.39733       -2.62282
C          5.99455       -1.75146       -1.07580
C          3.88665       -3.01855       -0.76228
C          4.25773       -1.78201       -2.90630
C          3.96505        3.82578        1.54397
C          6.04959        2.94184        0.53666
C          4.35994        4.13212       -0.90891
H          6.16450       -1.67861       -0.00212
H          6.46028       -2.67015       -1.43160
H          6.50612       -0.91836       -1.55102
H          4.44825       -3.89991       -1.07114
H          3.91472       -2.96827        0.32588
H          2.85426       -3.17477       -1.07147
H          3.19205       -1.79935       -3.13377
H          4.68474       -0.90956       -3.39497
H          4.71169       -2.67025       -3.34486
H          4.55300        4.69591        1.83524
H          2.94345        4.16883        1.38778
H          3.96824        3.12510        2.37856
H          6.54355        3.87190        0.81681
H          6.19266        2.22495        1.34447
H          6.55393        2.55509       -0.34529
H          4.84680        5.08776       -0.71622
H          3.30133        4.32147       -1.08509
H          4.77834        3.72047       -1.82417
H          4.68856        1.53012       -2.95156
H          6.25334        2.34424       -2.70579
H          6.21574        0.67028       -3.26589
