111
-148.55547943
P         -2.36355        2.34461        0.03856
P         -0.01076        0.26234        0.50966
C         -1.70974        2.08368        1.70709
C         -0.70608        1.16226        1.90735
C         -2.52504        4.15041       -0.32664
C         -1.78765        4.50061       -1.60061
C         -2.21007        2.79971        2.77562
H         -2.98427        3.53109        2.61022
C         -1.71057        2.57864        4.04758
H         -2.10164        3.13639        4.88279
C         -0.71352        1.64326        4.24774
H         -0.32573        1.46938        5.23797
C         -0.20931        0.93245        3.17322
H          0.57342        0.20243        3.30994
Pd        -1.11758        1.01884       -1.38436
Cl        -2.56120        1.55963       -3.01467
Cl         0.12674       -0.39815       -2.60036
C         -4.05168        4.35916       -0.40776
C         -4.12570        1.80944       -0.16079
H         -2.19895        3.94633       -2.44616
H         -1.86952        5.56531       -1.83232
H         -0.72641        4.25007       -1.52796
H         -4.27477        5.15561       -1.13257
H         -4.43193        4.72348        0.55788
H         -4.11736        0.96545       -0.86385
C         -4.79400        3.04814       -0.79084
C         -4.73241        1.39171        1.16202
H         -2.09355        4.68877        0.52821
H         -5.84878        3.09429       -0.48287
H         -4.80822        2.94634       -1.88602
H         -4.14151        0.60781        1.64120
H         -4.77507        2.23694        1.85061
H         -5.75216        1.02007        1.03634
C         -1.24086       -4.12014        0.57032
C          0.07937       -3.76947        0.95295
C          0.43965       -2.43248        0.92117
C         -0.47339       -1.46419        0.59485
C         -1.78070       -1.78737        0.33821
C         -2.20631       -3.10557        0.34706
O         -1.58293       -5.48615        0.38318
C          1.12056       -4.82149        1.36724
H          1.44698       -2.12814        1.14409
H         -2.46738       -0.98933        0.11349
C         -3.68624       -3.41198        0.06848
C          4.45484        1.06397        0.02706
C          3.86150       -0.03770       -0.63997
C          2.50003       -0.24020       -0.48775
C          1.75362        0.54390        0.35200
C          2.34400        1.54719        1.07668
C          3.69968        1.80940        0.96780
O          5.78775        1.44881       -0.27710
C          4.65486       -0.98626       -1.55201
H          1.99322       -1.00217       -1.05342
H          1.72279        2.13789        1.72667
C          4.32204        2.91093        1.84032
C          2.17533       -4.20671        2.31496
C          0.45441       -5.98282        2.12739
C          1.83929       -5.35161        0.11751
C         -4.58675       -2.26426        0.57790
C         -3.89432       -3.55727       -1.44700
C         -4.13975       -4.69020        0.79667
C         -1.39135       -5.95707       -0.94507
H          2.83752       -4.97761        2.70846
H          2.80234       -3.47885        1.80214
H          1.69659       -3.71388        3.16077
H          1.19683       -6.70084        2.47482
H         -0.09054       -5.61142        2.99460
H         -0.24993       -6.51784        1.49491
H          1.14551       -5.84432       -0.55841
H          2.31112       -4.53710       -0.43009
H          2.61234       -6.07081        0.38702
H         -4.45135       -1.35828       -0.00997
H         -5.63954       -2.53618        0.50517
H         -4.37105       -2.03586        1.62130
H         -3.61162       -2.64001       -1.96330
H         -3.28858       -4.36322       -1.85377
H         -4.93763       -3.76823       -1.68001
H         -3.95668       -4.60654        1.86739
H         -5.20424       -4.86932        0.64743
H         -3.60622       -5.56541        0.43552
H         -2.34885       -6.25322       -1.37272
H         -0.94174       -5.17893       -1.56328
H         -0.74268       -6.83282       -0.93030
C          5.89003        2.37122       -1.35489
C          6.12105       -1.10586       -1.09803
C          4.05595       -2.40996       -1.50242
C          4.58574       -0.47227       -2.99791
C          5.78411        2.57978        2.19094
C          4.24761        4.25275        1.09621
C          3.55769        3.04566        3.17734
H          6.64228       -0.15576       -1.18073
H          6.17539       -1.42661       -0.05823
H          6.66136       -1.83144       -1.70557
H          4.68156       -3.11290       -2.05200
H          3.98416       -2.75991       -0.47322
H          3.06397       -2.44808       -1.94969
H          5.12962       -1.13174       -3.67362
H          3.55164       -0.41858       -3.33767
H          5.01336        0.52412       -3.08259
H          6.40800        2.54864        1.30110
H          6.20529        3.32771        2.86228
H          5.85092        1.60857        2.68008
H          3.21371        4.50857        0.86549
H          4.66828        5.05728        1.69890
H          4.79624        4.21422        0.15825
H          3.48097        2.08133        3.67901
H          2.55213        3.43700        3.03016
H          4.07208        3.73230        3.84931
H          6.41128        3.26770       -1.01934
H          6.46530        1.92637       -2.16658
H          4.89815        2.64156       -1.71929
