45
-71.81746701
C          0.33939        0.66949        2.45304
P          0.95356        0.65302        0.73449
P         -1.60865        0.25441       -1.06088
C         -2.37665       -0.12590       -2.67053
Cl         1.65678       -2.43100        0.61693
H         -0.74592        0.62600        2.45775
H         -2.74666       -1.14721       -2.66898
Cl        -1.02150       -2.88157       -1.34934
C          0.30076        2.04203       -0.21241
C         -0.80630        1.87011       -1.01454
C         -1.31745        2.93475       -1.72798
C         -0.70541        4.17327       -1.64572
C          0.40934        4.34317       -0.84730
C          0.91376        3.27489       -0.12664
H         -2.19402        2.79361       -2.33910
H         -1.10076        5.00617       -2.20355
H          0.88581        5.30759       -0.78375
H          1.78250        3.39136        0.50135
Pd         0.04085       -1.19354       -0.32496
H         -1.64312       -0.01787       -3.46439
H          0.65660        1.57954        2.95406
H         -3.20676        0.54929       -2.85735
C         -4.46228       -0.19596        2.44535
C         -3.97369        1.05353        2.11580
C         -3.11558        1.19635        1.04038
C         -2.75916        0.09093        0.30317
C         -3.23379       -1.15722        0.63343
C         -4.09256       -1.30334        1.70713
H         -5.13033       -0.30781        3.28369
H         -4.25818        1.91581        2.69613
H         -2.71808        2.16273        0.77524
H         -2.90262       -2.01108        0.06374
H         -4.46540       -2.27955        1.97016
C          5.48592        0.51519        0.36859
C          4.68710        0.30960       -0.73874
C          3.30997        0.35584       -0.61263
C          2.74342        0.60335        0.61692
C          3.53545        0.81092        1.72342
C          4.91251        0.76675        1.59940
H          6.55876        0.47787        0.27234
H          5.13378        0.11076       -1.69903
H          2.67195        0.19710       -1.46813
H          3.07717        1.00538        2.67941
H          5.53640        0.92675        2.46341
H          0.72765       -0.18988        2.99231
