111
-148.55533107
P         -2.15567        2.09509        1.47498
P          0.17007        0.13237        0.60140
C         -1.05284        1.39810        2.72824
C         -0.04872        0.53645        2.34478
C         -2.19662        3.94122        1.57486
C         -1.33784        4.56757        0.49719
C         -1.20670        1.73195        4.05835
H         -1.98224        2.42268        4.34721
C         -0.36076        1.18412        5.00718
H         -0.48109        1.44121        6.04691
C          0.63736        0.30938        4.62256
H          1.29562       -0.11794        5.36100
C          0.79546       -0.01348        3.28648
H          1.57413       -0.68925        2.97053
Pd        -1.45374        1.31628       -0.58197
Cl        -3.23643        2.36255       -1.44284
Cl        -0.46709        0.45678       -2.40624
C         -3.69863        4.25665        1.46166
C         -3.95143        1.71913        1.74783
H         -1.68839        4.27712       -0.49492
H         -1.36382        5.65849        0.54937
H         -0.29652        4.24815        0.58447
H         -3.94719        4.40908        0.40224
H         -3.92936        5.21050        1.96015
H         -4.31701        1.32864        0.78880
C         -4.56742        3.10251        2.03537
C         -4.16536        0.70898        2.85628
H         -1.82324        4.20441        2.57320
H         -4.66504        3.22683        3.12246
H         -5.59375        3.15259        1.64160
H         -5.22142        0.45041        2.96255
H         -3.60749       -0.21054        2.67366
H         -3.82802        1.10528        3.81487
C         -1.30995       -4.06829       -0.36175
C         -2.16775       -3.12633        0.26708
C         -1.64978       -1.88166        0.58790
C         -0.37438       -1.53190        0.22636
C          0.40471       -2.38677       -0.50859
C         -0.04245       -3.65183       -0.84779
O         -1.68731       -5.43348       -0.44054
C         -3.65424       -3.38702        0.56460
H         -2.24855       -1.15596        1.11123
H          1.37299       -2.05007       -0.83279
C          0.85762       -4.51930       -1.74358
C          4.33738        1.04475       -1.00323
C          4.14125       -0.09095       -0.17671
C          2.86546       -0.34527        0.29871
C          1.82598        0.50665        0.02761
C          2.03626        1.66402       -0.67532
C          3.28756        1.98220       -1.17585
O          5.57212        1.22359       -1.68228
C          5.27884       -1.06431        0.17036
H          2.66354       -1.22774        0.88035
H          1.19655        2.31426       -0.84924
C          3.46853        3.30690       -1.93321
C         -4.49125       -2.18960        0.06183
C         -4.18621       -4.63776       -0.15663
C         -3.85352       -3.54678        2.08052
C          1.42571       -3.65907       -2.89526
C          2.02348       -5.07526       -0.90987
C          0.08444       -5.68198       -2.38966
C         -1.31374       -6.17387        0.70906
H         -5.55647       -2.37494        0.19692
H         -4.25132       -1.27340        0.59689
H         -4.31175       -2.01396       -0.99847
H         -5.26099       -4.74674       -0.01342
H         -3.98967       -4.57662       -1.22647
H         -3.71108       -5.54121        0.21822
H         -4.90594       -3.69405        2.32162
H         -3.29937       -4.40297        2.46085
H         -3.50673       -2.66370        2.61554
H          2.10534       -2.89021       -2.53177
H          1.98338       -4.27423       -3.60095
H          0.62071       -3.16719       -3.44051
H          2.59119       -4.26774       -0.44897
H          1.66379       -5.72353       -0.11333
H          2.70566       -5.65471       -1.53142
H          0.71270       -6.23037       -3.09113
H         -0.26449       -6.38761       -1.63919
H         -0.78592       -5.31097       -2.92977
H         -0.23167       -6.15818        0.82765
H         -1.77069       -5.74069        1.59749
H         -1.64877       -7.20522        0.59687
C          5.61210        0.63884       -2.97812
C          5.37079       -2.14814       -0.91471
C          6.62175       -0.32197        0.29496
C          5.01631       -1.75274        1.52911
C          2.50980        4.38683       -1.38059
C          4.89859        3.85224       -1.76878
C          3.14931        3.08622       -3.41980
H          5.58772       -1.71556       -1.88802
H          6.15678       -2.86663       -0.68354
H          4.43020       -2.69150       -0.99702
H          6.55228        0.47509        1.03445
H          7.41771       -1.00044        0.60089
H          6.91689        0.12559       -0.65088
H          4.16826       -2.43418        1.47841
H          5.88017       -2.34117        1.83759
H          4.81969       -1.01475        2.30642
H          2.61180        4.47968       -0.29965
H          2.72713        5.35922       -1.82195
H          1.46993        4.15883       -1.60984
H          5.14370        3.97340       -0.71417
H          5.63321        3.18101       -2.20600
H          5.00695        4.82099       -2.25587
H          3.81192        2.34538       -3.86036
H          3.25586        4.01217       -3.98423
H          2.12690        2.72994       -3.54430
H          5.77985        1.41385       -3.72567
H          6.43867       -0.06943       -3.03316
H          4.67488        0.12341       -3.19209
