58
-89.86789754
P          1.75767       -0.32082        0.81417
C          1.55432        1.47182        0.80158
C          1.48040        2.10005       -0.42127
C          1.29550        3.46877       -0.48775
C          1.19156        4.20376        0.67551
C          1.28017        3.57387        1.90063
C          1.46597        2.20507        1.96279
H          1.55260        1.71404        2.91739
H          1.56709        1.51381       -1.32273
C          3.44333       -0.75518        0.37268
C          3.80239       -2.08091        0.28991
C          5.09831       -2.42223       -0.05436
C          6.02555       -1.43197       -0.31249
C          5.66066       -0.10276       -0.22921
C          4.36401        0.23491        0.11398
H          4.06449        1.26822        0.17932
H          3.06365       -2.84395        0.47829
C          1.34601       -1.07842        2.44595
C         -0.13412       -1.35240        2.67351
C         -1.03576       -0.14059        2.46173
P         -1.59076       -0.01234        0.70880
C         -3.06091       -1.02451        0.51577
C         -4.29416       -0.41334        0.50192
C         -5.43912       -1.17645        0.35822
C         -5.33918       -2.54772        0.22987
C         -4.09969       -3.15640        0.24461
C         -2.95672       -2.39077        0.38946
H         -1.98303       -2.85355        0.38654
H         -4.35479        0.65896        0.59929
C         -1.91774        1.68269        0.21205
C         -2.01355        1.95349       -1.13352
C         -2.25560        3.24485       -1.56323
C         -2.40712        4.25739       -0.63673
C         -2.32335        3.97989        0.71370
C         -2.08007        2.68657        1.13973
H         -2.01656        2.45933        2.19125
H         -1.90179        1.14439       -1.83772
Pd         0.06841       -0.77148       -0.72482
Cl         1.71651       -1.62827       -1.98320
Cl        -1.57347       -1.17424       -2.20445
H         -1.94903       -0.20152        3.05930
H         -0.52918        0.77997        2.75056
H         -0.46523       -2.16006        2.00648
H         -0.27302       -1.74988        3.69117
H          1.92594       -2.00155        2.51888
H          1.74084       -0.41152        3.21369
H          1.22632        3.95764       -1.44554
H          1.20366        4.14847        2.80912
H          5.38089       -3.45967       -0.12588
H          6.38298        0.67043       -0.43350
H         -6.40586       -0.70057        0.34409
H         -4.02126       -4.22591        0.13847
H         -2.32540        3.45850       -2.61706
H         -2.44378        4.77054        1.43594
H          1.04086        5.26988        0.62714
H          7.03471       -1.69705       -0.58274
H         -6.22985       -3.14372        0.11495
H         -2.59338        5.26595       -0.96802
