105
-153.06789923
Cl         0.36022        3.02004        2.52941
Pd        -0.24675        1.71694        0.79089
P         -0.76432        0.50715       -1.17969
N          0.31972       -0.80712       -1.63039
C          0.53225       -2.16294       -1.34968
C          0.04785       -2.83844       -0.19912
C          0.50789       -4.14089        0.08925
C          0.17065       -4.77135        1.41945
C          1.20044       -5.82292        1.85495
C          1.39265       -6.85901        0.74309
C          1.88208       -6.19717       -0.55753
C          1.34903       -4.80469       -0.80713
C          1.76423       -4.14532       -1.95688
C          1.38362       -2.85359       -2.21112
H          1.75001       -2.34471       -3.08604
H          2.42311       -4.65494       -2.63963
H          2.97757       -6.14494       -0.54847
H          2.08480       -7.65001        1.06430
H          2.15795       -5.32869        2.06177
H          0.08051       -3.98821        2.18254
C         -0.76025       -2.12167        0.81517
C         -0.08706       -1.21021        1.66283
C         -0.81007       -0.55798        2.66076
C         -2.14639       -0.81334        2.83215
C         -2.81391       -1.73486        2.03193
C         -4.26836       -2.01150        2.30238
C         -4.69362       -3.40849        1.82946
C         -4.30961       -3.60949        0.36039
C         -2.79761       -3.42455        0.13151
C         -2.12396       -2.39644        1.01360
H         -2.29867       -4.38743        0.27427
H         -4.86273       -2.88837       -0.25047
H         -5.77109       -3.56534        1.98090
H         -4.87207       -1.24771        1.79870
H         -2.69428       -0.29936        3.60350
H         -0.30250        0.15388        3.28746
N          1.28165       -0.97940        1.47951
P          1.82176        0.66514        1.14001
C          2.61184        0.78606       -0.46179
C          3.41271       -0.23450       -0.91873
C          3.88269       -0.20497       -2.21953
C          3.55170        0.84375       -3.06667
C          2.78006        1.88484       -2.57107
C          2.30998        1.85532       -1.27188
H          1.68708        2.65248       -0.89800
H          2.53055        2.71012       -3.21601
C          4.04693        0.87233       -4.47041
H          4.49857       -1.00690       -2.58950
H          3.64241       -1.06498       -0.27051
C          2.83413        1.35305        2.43994
C          2.81359        0.75431        3.67595
C          3.56527        1.28637        4.70855
C          4.34255        2.41887        4.50339
C          4.33920        3.01416        3.24845
C          3.58691        2.48063        2.21743
H          3.57597        2.94257        1.24296
H          4.92470        3.90279        3.08529
C          5.12782        3.01167        5.62117
H          3.54831        0.82687        5.68199
H          2.20799       -0.12565        3.82422
H          1.74817       -1.57210        0.80710
H          1.12517       -0.30445       -1.98619
C         -0.61403        1.67672       -2.54059
C         -0.22933        1.17898       -3.76403
C         -0.06377        2.03331       -4.83959
C         -0.29258        3.39495       -4.69958
C         -0.68770        3.87934       -3.46035
C         -0.85411        3.02149       -2.39066
H         -1.18254        3.39568       -1.43707
H         -0.86467        4.93435       -3.33863
C         -0.07877        4.32212       -5.84495
H          0.25219        1.64658       -5.79338
H         -0.04721        0.12180       -3.87205
C         -2.45517       -0.07601       -1.25864
C         -3.46806        0.47036       -0.50755
C         -4.77276        0.06076       -0.70500
C         -5.07679       -0.89035       -1.66896
C         -4.04506       -1.41763       -2.43404
C         -2.73832       -1.01022       -2.22702
H         -1.93265       -1.40894       -2.82368
H         -4.27008       -2.14533       -3.19479
C         -6.48796       -1.30409       -1.90377
H         -5.56864        0.49460       -0.12403
H         -3.24176        1.25222        0.19601
Cl        -2.03887        3.03955        0.49162
H          1.62931       -6.82620       -1.42048
H          0.90323       -6.30347        2.79781
H          0.43706       -7.36564        0.55733
H         -0.81580       -5.24203        1.35866
H         -4.63759       -4.59709        0.00691
H         -2.60199       -3.16364       -0.91500
H         -4.46995       -1.88966        3.37425
H         -4.19324       -4.16802        2.44332
H          4.15499       -0.13705       -4.86992
H          3.35597        1.41215       -5.11970
H          5.01866        1.36441       -4.52883
H          6.02026        3.51787        5.25058
H          4.53003        3.74121        6.16916
H          5.45148        2.24418        6.32563
H         -0.73435        5.19129       -5.77577
H          0.95197        4.67865       -5.86688
H         -0.28440        3.82773       -6.79540
H         -6.98457       -0.61437       -2.58747
H         -6.53998       -2.30357       -2.33794
H         -7.05325       -1.31876       -0.97074
