59
-75.79966096
Cl         1.69117        0.10905        2.36674
P          1.54624       -0.02773       -0.84046
P         -1.61857       -0.24583       -0.71188
C          0.55925       -0.20935       -2.40065
H          0.33121        0.79521       -2.76424
H          1.18566       -0.68804       -3.15957
C         -0.71489       -0.97249       -2.14892
H         -0.50772       -2.01883       -1.91584
H         -1.37923       -0.96088       -3.01802
C          3.02594       -1.14041       -0.77027
H          3.19571       -1.48947       -1.79598
C          2.37949        1.62156       -0.66769
H          2.13109        1.97808        0.33957
C         -3.23767       -1.07267       -0.37676
H         -3.40727       -0.98217        0.70329
C         -2.23022        1.45099       -1.13271
H         -1.87059        1.67100       -2.14483
C          4.15343       -0.19050       -0.32701
H          4.24122       -0.23619        0.76744
H          5.12283       -0.53863       -0.71522
C          3.87581        1.27425       -0.75817
H          4.21114        1.41880       -1.79436
H          4.46951        1.97812       -0.15532
C         -4.22294       -0.17420       -1.14417
H         -4.28036       -0.52166       -2.18537
H         -5.24009       -0.28562       -0.73756
C         -3.76733        1.31139       -1.11142
H         -4.15092        1.78335       -0.19674
H         -4.21638        1.87659       -1.94172
C          2.83327       -2.32813        0.16602
H          2.57814       -1.95244        1.16538
H          3.79497       -2.84534        0.28989
C          1.91687        2.63524       -1.70913
H          2.18277        2.26357       -2.70738
H          0.82089        2.69100       -1.70430
C         -3.25627       -2.54049       -0.78414
H         -4.29258       -2.90587       -0.76805
H         -2.93762       -2.62416       -1.83110
C         -1.68993        2.47195       -0.13749
H         -2.07781        2.22931        0.86131
H         -0.60148        2.35597       -0.05137
C          1.77538       -3.30667       -0.31329
H          1.66624       -4.15819        0.36229
H          2.01646       -3.69842       -1.30325
H          0.80251       -2.82275       -0.38629
C          2.50425        4.02109       -1.48877
H          3.59454        4.00261       -1.53533
H          2.23093        4.41224       -0.50687
H          2.15634        4.73767       -2.23638
C         -2.38532       -3.40740        0.11199
H         -2.73695       -3.38357        1.14521
H         -1.35443       -3.05352        0.12296
H         -2.37354       -4.45144       -0.20893
C         -2.03303        3.90694       -0.50820
H         -3.11291        4.05776       -0.55586
H         -1.63298        4.62292        0.21336
H         -1.62847        4.16755       -1.48812
Cl        -1.53832       -0.48939        2.46803
Pd         0.03827       -0.24226        0.89232
