171
-217.83838671
P         -1.69861        0.67627        0.25125
P          1.48352       -0.16702       -0.31594
C         -0.98743        1.78855       -0.98329
C          0.59185       -0.89614       -1.70226
C         -0.33770        1.36575       -2.13679
C          0.27881        2.32866       -2.95800
C          0.19856        3.66709       -2.61243
C         -0.46031        4.06918       -1.47068
C         -1.04304        3.12184       -0.65146
C          0.73979       -2.22642       -2.00816
C          0.04305       -2.77780       -3.06520
C         -0.80446       -1.98726       -3.81379
C         -0.96914       -0.64214       -3.52327
C         -0.24038       -0.08067       -2.45770
Cl         2.13824        1.28486        2.58804
Cl        -0.89974        0.68838        3.46231
C         -1.89332        0.19740       -4.33517
C          1.04479        1.94526       -4.17571
H         -0.51004        5.11388       -1.21054
H         -1.53650        3.41820        0.26256
H          1.40301       -2.83618       -1.41991
H          0.15748       -3.82341       -3.30021
H          0.67300        4.39783       -3.24573
H         -1.34621       -2.41546       -4.63991
C         -2.79222       -3.62661       -0.67832
C         -1.74039       -3.39376        0.20050
C         -1.37558       -2.07529        0.44281
C         -2.04757       -1.04026       -0.16573
C         -3.09604       -1.29184       -1.01603
C         -3.48916       -2.59424       -1.29444
H         -3.09204       -4.63835       -0.87088
H         -0.57372       -1.85739        1.12539
H         -3.63439       -0.46237       -1.44129
C         -5.68606        2.46014        1.45824
C         -5.33104        2.42141        0.11479
C         -4.09379        1.88242       -0.21230
C         -3.25531        1.40892        0.76668
C         -3.62129        1.45810        2.08700
C         -4.84883        1.98715        2.46164
H         -6.63795        2.87005        1.73898
H         -3.77623        1.83603       -1.24108
H         -2.92819        1.09170        2.82126
C          3.97112       -3.42072        1.68361
C          3.03817       -2.74856        2.46193
C          2.26597       -1.76895        1.85289
C          2.43917       -1.45500        0.52521
C          3.38764       -2.11554       -0.21701
C          4.16247       -3.12331        0.34061
H          4.56581       -4.18682        2.14442
H          1.53399       -1.23664        2.42966
H          3.52567       -1.84804       -1.25011
C          4.47211        2.80454       -1.98416
C          3.76695        3.14597       -0.83607
C          2.86208        2.22295       -0.33218
C          2.65938        1.02299       -0.96365
C          3.35050        0.70879       -2.10842
C          4.28191        1.59388       -2.63924
H          5.20204        3.48810       -2.37462
H          2.32715        2.43287        0.57652
H          3.14466       -0.22855       -2.59520
Pd         0.25206        0.68479        1.52812
C          0.44913       -4.57680        0.56567
C         -1.03736       -4.53343        0.95554
C         -1.66048       -5.90566        0.63333
C         -1.17163       -4.28546        2.46950
H          0.93871       -3.63209        0.79010
H          0.97497       -5.36175        1.10873
H          0.56225       -4.77350       -0.49985
H         -1.56761       -6.14007       -0.42697
H         -1.15839       -6.69732        1.18944
H         -2.71584       -5.93097        0.90423
H         -0.72324       -5.09781        3.04059
H         -0.68189       -3.35837        2.76248
H         -2.22078       -4.21281        2.75523
C         -4.92615       -4.33725       -2.47090
C         -4.72862       -2.83946       -2.16771
C         -4.58315       -2.09375       -3.50612
C         -5.96903       -2.31683       -1.42057
H         -5.10782       -4.90428       -1.55820
H         -5.78426       -4.48898       -3.12561
H         -4.05070       -4.75324       -2.96948
H         -5.44877       -2.26772       -4.14510
H         -4.49547       -1.01883       -3.35579
H         -3.69804       -2.43656       -4.04001
H         -5.87841       -1.25214       -1.20840
H         -6.87361       -2.46687       -2.00959
H         -6.09319       -2.83557       -0.47021
C         -6.58235        1.78080       -1.96074
C         -6.24215        2.94069       -1.00623
C         -5.50815        4.05103       -1.78159
C         -7.55741        3.51969       -0.45092
H         -7.23539        2.11668       -2.76601
H         -5.68350        1.36338       -2.41323
H         -7.09163        0.97960       -1.42576
H         -6.13801        4.45584       -2.57352
H         -5.23498        4.86917       -1.11545
H         -4.59465        3.67626       -2.24199
H         -8.18905        3.88831       -1.25913
H         -8.12326        2.76071        0.08903
H         -7.36472        4.35374        0.22365
C         -5.54538        3.53015        4.31228
C         -5.29299        2.06029        3.92967
C         -4.21994        1.48771        4.87707
C         -6.58689        1.24551        4.11032
H         -4.64363        4.12494        4.16794
H         -6.33603        3.96814        3.70425
H         -5.84264        3.61568        5.35733
H         -4.01745        0.44049        4.65370
H         -3.28644        2.04398        4.79514
H         -4.54834        1.54599        5.91460
H         -6.91598        1.26120        5.14920
H         -7.39531        1.64452        3.49880
H         -6.43021        0.20641        3.82129
C          2.51064       -4.55252        4.12461
C          2.90806       -3.07530        3.95679
C          1.84207       -2.19677        4.64270
C          4.25990       -2.81922        4.64850
H          1.56678       -4.75628        3.62132
H          3.26411       -5.21623        3.70217
H          2.39341       -4.80793        5.17758
H          2.09225       -1.13927        4.55945
H          0.85811       -2.35246        4.20277
H          1.76855       -2.43501        5.70354
H          4.56714       -1.78186        4.51701
H          4.19531       -3.01958        5.71781
H          5.04299       -3.45492        4.23710
C          6.21180       -2.83848       -1.07371
C          5.18431       -3.85440       -0.54060
C          4.44937       -4.51688       -1.72142
C          5.93527       -4.94738        0.24332
H          6.72575       -2.34282       -0.25041
H          6.96130       -3.32949       -1.69412
H          5.73131       -2.06978       -1.67750
H          5.14500       -5.06678       -2.35501
H          3.69463       -5.21596       -1.36141
H          3.94837       -3.77570       -2.34319
H          6.65185       -5.46003       -0.39832
H          6.48862       -4.52042        1.07953
H          5.24468       -5.69624        0.63085
C          4.46289        4.19487        1.33042
C          3.96365        4.47755       -0.09886
C          2.61868        5.22529       -0.03890
C          4.99173        5.37767       -0.81005
H          4.62903        5.12297        1.87686
H          3.74162        3.60226        1.89191
H          5.40202        3.64260        1.30762
H          1.86677        4.64593        0.49570
H          2.72605        6.18256        0.47069
H          2.24160        5.41746       -1.04303
H          5.10999        6.32270       -0.28004
H          5.97001        4.89918       -0.85186
H          4.67415        5.60707       -1.82711
C          4.65281       -0.06543       -4.53354
C          5.13809        1.23561       -3.86332
C          6.59476        1.03982       -3.40636
C          5.07351        2.36778       -4.90655
H          4.74396       -0.91568       -3.85814
H          3.61167        0.01870       -4.84427
H          5.24622       -0.28812       -5.42019
H          6.99188        1.95156       -2.96111
H          6.66137        0.24797       -2.66055
H          7.23520        0.76895       -4.24556
H          4.04879        2.53776       -5.23400
H          5.45805        3.30448       -4.50570
H          5.66719        2.11820       -5.78587
H         -2.46548        0.87436       -3.69853
H          0.55020        2.30524       -5.07903
H         -2.60332       -0.41472       -4.89253
H         -1.34177        0.80020       -5.05710
H          1.15739        0.86376       -4.25851
H          2.04475        2.37861       -4.14719
