64
-97.21150961
Cl        -1.67241       -1.25957       -2.52448
Cl         1.55118       -1.24748       -2.94985
P          1.93541       -0.70041        0.23163
C          2.10173       -2.38595        0.98055
C          3.72816       -0.32992       -0.08989
P         -1.27738       -0.11660        0.45217
C          1.30136        0.52825        1.42693
C         -0.11367        0.83234        1.50078
C         -0.30881        1.93186        2.43425
C          1.00437        2.37380        2.86730
C          1.99579        1.52371        2.22949
H         -1.26687        2.33838        2.76328
H          1.20999        3.18734        3.56709
Pd         0.13776       -0.92342       -1.24804
H          3.07813        1.59145        2.35962
C         -5.01394        2.18944       -0.80028
C         -4.01059        2.84614       -0.11661
C         -2.87472        2.15821        0.26749
C         -2.73809        0.82216       -0.03615
C         -3.74162        0.16597       -0.71213
C         -4.88169        0.84804       -1.09785
H         -5.90020        2.72373       -1.10170
H         -4.11130        3.89336        0.11728
H         -2.08860        2.66552        0.79769
H         -3.62601       -0.88036       -0.94428
H         -5.66262        0.33256       -1.63242
C         -2.62739       -3.91457        2.54460
C         -2.37874       -2.77328        3.28246
C         -1.97584       -1.61388        2.64388
C         -1.82300       -1.60867        1.27680
C         -2.07662       -2.73987        0.53657
C         -2.47917       -3.90000        1.17129
H         -2.94085       -4.81817        3.04159
H         -2.49658       -2.78514        4.35357
H         -1.77182       -0.71460        3.20332
H         -1.96827       -2.70228       -0.53557
H         -2.67813       -4.78855        0.59494
C          4.08301       -0.39039       -1.55936
H          3.92197        0.67424        0.30924
C          4.45059       -1.40735        0.74265
H          4.65380       -1.02599        1.75412
C          3.60302       -2.70358        0.84138
H          5.43503       -1.61942        0.30045
C          1.61971       -2.37246        2.41495
H          1.49179       -3.06890        0.37339
H          3.93038       -3.31766        1.69269
H          3.77490       -3.32053       -0.05258
H          2.20379       -1.66670        3.00899
H          0.57408       -2.06671        2.47990
H          1.71273       -3.35678        2.87987
H          5.14787       -0.21000       -1.72165
H          3.84906       -1.37484       -1.96767
H          3.52774        0.34555       -2.14265
Fe         0.88171        2.47731        0.84124
C          0.08970        4.00444       -0.29317
C          0.01146        2.73849       -0.99982
C          1.35690        2.21404       -1.12145
C          2.27363        3.16047       -0.51499
C          1.48730        4.26431        0.00840
H         -0.74968        4.66450       -0.06305
H         -0.88967        2.27896       -1.41081
H          1.62831        1.30659       -1.66395
H          3.36155        3.07006       -0.47754
H          1.88089        5.14936        0.51325
