72
-108.40357829
Cl        -1.72823        0.75401        2.74748
Cl         1.04269       -0.70527        2.76724
P          1.10183       -1.12967       -0.31794
P         -2.24585        0.07636       -0.36881
C         -3.21802       -1.53892       -0.15518
C         -3.55992       -1.73170        1.32391
C         -4.49144       -1.49662       -0.99223
C         -3.34318        1.60372       -0.06739
C         -4.17800        1.91640       -1.31642
C         -1.47391        0.42419       -2.05483
C         -1.53828       -0.71567       -3.05018
C          1.10537        0.23109       -1.52219
C         -0.06310        0.97810       -1.98240
C          0.42693        2.07830       -2.81418
C          1.87348        2.00335       -2.86652
C          2.28945        0.86163       -2.07454
C         -2.34469       -2.70812       -0.58697
H         -2.66503       -1.70425        1.94558
H         -4.24698       -0.97492        1.69236
H         -5.18594       -0.74232       -0.62622
H         -5.00855       -2.45669       -0.95187
C         -4.28333        1.42452        1.12071
H         -4.65889        1.02557       -1.71631
H         -3.57978        2.36448       -2.10899
H         -2.09585        1.23438       -2.44620
H         -0.86850       -1.51881       -2.75247
H         -1.20775       -0.39007       -4.03866
H         -2.54465       -1.11814       -3.15874
H         -0.19883        2.77302       -3.37707
H          2.53241        2.66929       -3.42792
Pd        -0.49902       -0.27408        1.18029
H          3.31470        0.53484       -1.88831
C         -2.38610        2.75451        0.20625
H         -4.96286        2.63666       -1.07950
H         -3.74673        1.10539        2.01154
H         -4.77608        2.36759        1.36156
H         -5.06996        0.70398        0.90446
H         -1.64056        2.84034       -0.58559
H         -2.92301        3.70319        0.26817
H         -1.87115        2.60684        1.15420
H         -4.03862       -2.69941        1.48255
H         -4.27701       -1.28154       -2.03791
H         -1.41341       -2.71254       -0.02335
H         -2.84722       -3.65813       -0.39709
H         -2.11109       -2.67829       -1.64800
C          2.77755       -1.21538        0.36779
C          3.22825       -2.18938        1.22391
C          4.55703       -1.88966        1.52385
C          4.86536       -0.74349        0.83403
O          3.78227       -0.31936        0.11998
H          2.65260       -3.01387        1.61064
H          5.21163       -2.44641        2.17434
H          5.82178       -0.23552        0.84572
C          0.75068       -2.72817       -1.07295
C          0.71521       -3.90668       -0.36876
C          0.41923       -4.91976       -1.28173
C          0.28700       -4.31581       -2.50792
O          0.48426       -2.96922       -2.39309
H          0.86727       -4.01860        0.69259
H          0.31472       -5.97055       -1.06616
H          0.05749       -4.81881       -3.43910
Fe         1.25786        2.15392       -0.90487
C          0.86608        2.62070        1.07317
C          0.83953        3.81011        0.24215
C          2.14540        3.95981       -0.37319
C          2.95653        2.83126        0.04682
C          2.17445        2.01635        0.95538
H          0.07230        2.26252        1.73069
H          0.00938        4.51461        0.15497
H          2.45753        4.76744       -1.03867
H          3.99543        2.64667       -0.23564
H          2.50241        1.10191        1.45239
