59
-75.79975698
Cl         1.69497        0.43095        2.38398
P          1.62845       -0.07614       -0.82677
P         -1.54649       -0.21858       -0.73239
C          0.62363        0.03327       -2.37617
H          0.36228        1.07797       -2.55542
H          1.24236       -0.29418       -3.21763
C         -0.61482       -0.80318       -2.21706
H         -0.35213       -1.85324       -2.07205
H         -1.27179       -0.74342       -3.09024
C          2.79702       -1.50210       -0.98118
H          2.44132       -2.13582       -1.80324
C          2.84618        1.30561       -0.59012
H          2.68145        1.68706        0.42570
C         -3.03259       -1.23684       -0.28475
H         -2.92759       -1.47768        0.78085
C         -2.37243        1.38799       -1.12525
H         -1.90397        1.79251       -2.03084
C          4.11875       -0.79769       -1.34663
H          4.97085       -1.42796       -1.05138
H          4.19251       -0.69119       -2.43941
C          4.21880        0.60376       -0.68606
H          4.92005        1.24131       -1.24319
H          4.65513        0.50034        0.31830
C         -4.21669       -0.26881       -0.50756
H         -5.05775       -0.81399       -0.95924
H         -4.59122        0.09051        0.46217
C         -3.82603        0.94960       -1.38837
H         -4.51241        1.79005       -1.21166
H         -3.94708        0.68561       -2.44976
C          2.87266       -2.31134        0.31064
H          3.02185       -1.61854        1.14953
H          3.77475       -2.93880        0.28979
C          2.65171        2.44366       -1.58775
H          3.55086        3.07551       -1.59443
H          2.59020        2.02194       -2.59926
C         -3.12784       -2.53243       -1.08620
H         -4.14931       -2.93028       -1.00793
H         -2.99039       -2.30218       -2.15051
C         -2.21457        2.36618        0.03488
H         -2.73216        1.95653        0.91272
H         -1.15674        2.41284        0.32692
C          1.64970       -3.18379        0.55083
H          1.51262       -3.90282       -0.25908
H          0.73872       -2.58867        0.60732
H          1.72645       -3.74854        1.48267
C          1.43154        3.30015       -1.27946
H          1.27995        4.08383       -2.02515
H          1.52801        3.78686       -0.30695
H          0.52106        2.70279       -1.24145
C         -2.13553       -3.59098       -0.62745
H         -1.10933       -3.22922       -0.68061
H         -2.19537       -4.49932       -1.23128
H         -2.31551       -3.87509        0.41122
C         -2.72219        3.76642       -0.27841
H         -2.57128        4.45164        0.55888
H         -2.20570        4.18723       -1.14326
H         -3.78848        3.76610       -0.50911
Cl        -1.55551       -0.06551        2.42316
Pd         0.08704       -0.03028        0.89306
