45
-71.81821536
C          2.28747        1.44841        2.34690
P          1.50830        0.95196        0.77455
P         -1.05394        0.10279       -0.86656
C         -0.38724       -0.54227       -2.43842
Cl         1.46401       -1.74841        2.44283
H          2.83188        0.60833        2.76859
H         -0.79772        0.01378       -3.27624
Cl        -1.05537       -2.79527        0.56042
C          0.44204        2.22837        0.07372
C         -0.66514        1.85058       -0.65443
C         -1.47713        2.80501       -1.23143
C         -1.17371        4.14663       -1.08051
C         -0.05931        4.52562       -0.35712
C          0.75286        3.56479        0.21949
H         -2.34281        2.49355       -1.79346
H         -1.80623        4.89487       -1.52910
H          0.17968        5.57018       -0.24317
H          1.63063        3.84890        0.77677
Pd         0.14845       -0.92363        0.82108
H         -0.64703       -1.59166       -2.54488
H          1.52508        1.76467        3.05306
H          0.69452       -0.44468       -2.44911
C         -5.53089       -0.56702       -0.40682
C         -4.71822       -0.52498        0.70866
C         -3.35716       -0.32460        0.56262
C         -2.81842       -0.17513       -0.69508
C         -3.62547       -0.21018       -1.80991
C         -4.98716       -0.40817       -1.66616
H         -6.59126       -0.72385       -0.29433
H         -5.14173       -0.64972        1.69169
H         -2.71120       -0.28779        1.42554
H         -3.19013       -0.08077       -2.78772
H         -5.62192       -0.43840       -2.53651
C          4.49532       -0.50250       -2.32392
C          4.29208       -1.22572       -1.16478
C          3.39080       -0.77002       -0.22049
C          2.70748        0.40367       -0.43870
C          2.89820        1.12370       -1.59523
C          3.79867        0.67035       -2.54230
H          5.19634       -0.85656       -3.06204
H          4.82805       -2.14565       -0.99853
H          3.19030       -1.33343        0.67710
H          2.33963        2.03199       -1.75393
H          3.95407        1.23076       -3.44952
H          2.98005        2.26806        2.17853
