171
-217.84607490
P         -1.59836        0.40892       -0.29029
P          1.61916       -0.39885       -0.32579
C         -0.87754        1.36463       -1.62782
C          0.86443       -1.36103       -1.64031
C         -0.10550        0.73740       -2.59909
C          0.51599        1.52875       -3.58402
C          0.31694        2.89953       -3.57644
C         -0.47119        3.49898       -2.61657
C         -1.06261        2.72539       -1.63758
C          1.04921       -2.72198       -1.64421
C          0.43144       -3.50384       -2.60006
C         -0.38307       -2.91244       -3.54256
C         -0.58260       -1.54182       -3.55606
C          0.06593       -0.74197       -2.59544
Cl         1.61260        0.33322        2.89153
Cl        -1.56514       -0.40356        2.88520
C         -1.47279       -0.94267       -4.58814
C          1.37190        0.91793       -4.63791
H         -0.62347        4.56581       -2.62721
H         -1.67357        3.18522       -0.87798
H          1.68002       -3.17601       -0.89745
H          0.58260       -4.57089       -2.60523
H          0.79068        3.49958       -4.33501
H         -0.87844       -3.51885       -4.28204
C         -3.92461       -3.22792       -1.62173
C         -2.90712       -3.39120       -0.69027
C         -2.19357       -2.26355       -0.30457
C         -2.47804       -1.04116       -0.85934
C         -3.47424       -0.89816       -1.79371
C         -4.22712       -1.99712       -2.19059
H         -4.51551       -4.08256       -1.89482
H         -1.42001       -2.32453        0.44097
H         -3.66905        0.08280       -2.19313
C         -4.38745        2.85808        2.32590
C         -3.03812        3.19285        2.29491
C         -2.20385        2.45937        1.46117
C         -2.69975        1.42048        0.71356
C         -4.03134        1.09375        0.77101
C         -4.90639        1.80964        1.57526
H         -5.04829        3.42219        2.95516
H         -1.15310        2.68794        1.40659
H         -4.39250        0.26112        0.19342
C          4.42244       -2.86162        2.25584
C          3.06872       -3.17676        2.25285
C          2.23276       -2.43905        1.42504
C          2.73173       -1.41267        0.66207
C          4.06908       -1.10447        0.69121
C          4.94674       -1.83264        1.48372
H          5.09111       -3.42032        2.88309
H          1.17771       -2.65153        1.39007
H          4.42132       -0.27820        0.10036
C          3.87838        3.25812       -1.72156
C          4.17728        2.03099       -2.29997
C          3.45080        0.92266       -1.87965
C          2.48152        1.05410       -0.91559
C          2.20063        2.27356       -0.35213
C          2.88919        3.40950       -0.75841
H          4.44851        4.12005       -2.01519
H          3.64290       -0.05529       -2.28736
H          1.44747        2.32681        0.41462
Pd         0.02269        0.01909        1.33996
C         -3.84080       -5.18821        0.77972
C         -2.63605       -4.77359       -0.08281
C         -1.37533       -4.75988        0.80196
C         -2.42338       -5.80169       -1.21012
H         -4.01009       -4.46407        1.57650
H         -4.75029       -5.24663        0.18259
H         -3.67629       -6.16334        1.23779
H         -0.50761       -4.43192        0.23055
H         -1.50080       -4.09410        1.65534
H         -1.16355       -5.75569        1.19100
H         -2.18444       -6.78352       -0.80180
H         -3.31459       -5.90814       -1.82703
H         -1.60234       -5.49733       -1.85812
C         -5.48581       -0.46503       -3.78528
C         -5.41313       -1.87074       -3.15718
C         -6.71609       -2.12940       -2.37906
C         -5.27673       -2.90310       -4.29285
H         -5.64973        0.29842       -3.02522
H         -4.56740       -0.22689       -4.32106
H         -6.31005       -0.40107       -4.49553
H         -6.82537       -1.41650       -1.56211
H         -7.58550       -2.03460       -3.02936
H         -6.72513       -3.13101       -1.95025
H         -5.29555       -3.92268       -3.91049
H         -6.09370       -2.80434       -5.00748
H         -4.34070       -2.76559       -4.83248
C         -2.07589        5.49813        2.19138
C         -2.45179        4.33962        3.13054
C         -1.19714        3.84438        3.87829
C         -3.45921        4.85589        4.17637
H         -1.36280        5.17236        1.43610
H         -2.95729        5.87580        1.67341
H         -1.62850        6.32305        2.74555
H         -0.79426        4.62468        4.52358
H         -1.43598        2.98147        4.49953
H         -0.40800        3.54945        3.18875
H         -4.33699        5.29083        3.69917
H         -3.78548        4.05043        4.83412
H         -3.00881        5.63023        4.79729
C         -6.98322        1.55897        0.19612
C         -6.38750        1.40706        1.60801
C         -7.19732        2.28559        2.58036
C         -6.50323       -0.06049        2.06283
H         -8.03775        1.28400        0.18510
H         -6.89845        2.58929       -0.14877
H         -6.46523        0.92374       -0.52124
H         -7.16256        3.33387        2.28432
H         -8.24410        1.98219        2.59489
H         -6.81485        2.19961        3.59726
H         -5.99715       -0.73241        1.37052
H         -6.05338       -0.19439        3.04634
H         -7.54659       -0.36957        2.12275
C          3.49597       -4.81495        4.15349
C          2.48006       -4.30314        3.11376
C          2.07770       -5.47107        2.19774
C          1.24184       -3.78126        3.87085
H          4.36200       -5.26724        3.67097
H          3.84066       -4.00318        4.79386
H          3.04552       -5.57433        4.79258
H          2.94759       -5.86810        1.67481
H          1.62671       -6.28141        2.77019
H          1.35958       -5.14741        1.44639
H          0.44670       -3.48741        3.18779
H          0.83871       -4.54651        4.53374
H          1.49951       -2.91172        4.47509
C          7.25948       -2.76365        1.18409
C          6.44582       -1.50794        1.54858
C          6.80080       -1.05253        2.97532
C          6.82520       -0.38278        0.56515
H          7.07455       -3.57555        1.88628
H          6.99616       -3.11624        0.18701
H          8.32857       -2.55206        1.19572
H          6.21802       -0.17478        3.25413
H          6.59274       -1.83618        3.70296
H          7.85723       -0.79600        3.05229
H          7.89469       -0.17684        0.60587
H          6.58086       -0.66192       -0.45964
H          6.30327        0.54321        0.80598
C          5.10873        2.93574       -4.45701
C          5.32477        1.92460       -3.31464
C          5.41296        0.51197       -3.92448
C          6.65272        2.23437       -2.60000
H          5.89901        2.85348       -5.20303
H          4.15694        2.76121       -4.95644
H          5.10913        3.96051       -4.08816
H          5.62513       -0.23440       -3.15925
H          4.48257        0.24087       -4.42260
H          6.21210        0.45910       -4.66373
H          6.65051        3.24172       -2.18487
H          6.82142        1.53659       -1.78053
H          7.49430        2.15707       -3.28815
C          3.84358        5.21465        0.68804
C          2.62049        4.78877       -0.14250
C          1.38373        4.76186        0.77527
C          2.36793        5.81613       -1.26228
H          4.73628        5.28171        0.06696
H          3.68202        6.18813        1.15066
H          4.04078        4.49208        1.47979
H          0.50466        4.42523        0.22676
H          1.53835        4.09715        1.62470
H          1.17204        5.75529        1.17037
H          2.12859        6.79464       -0.84627
H          3.24193        5.93362       -1.90141
H          1.53416        5.50374       -1.88978
H         -1.78859        0.06315       -4.30801
H          0.82595        0.82394       -5.57758
H         -2.37232       -1.54432       -4.71985
H         -0.96645       -0.88254       -5.55247
H          1.71684       -0.07483       -4.34572
H          2.25416        1.53028       -4.82411
