64
-97.21658191
Cl        -1.62695       -1.25634       -2.54611
Cl         1.54624       -1.32977       -2.95565
P          1.93622       -0.66204        0.25774
C          2.12061       -2.33734        1.02484
C          3.72294       -0.27785       -0.07442
P         -1.27685       -0.12158        0.44117
C          1.28311        0.57481        1.43460
C         -0.14007        0.83900        1.51012
C         -0.34815        1.94151        2.43625
C          0.96136        2.39419        2.87251
C          1.97108        1.52450        2.29391
H         -1.31011        2.34851        2.75238
H          1.15076        3.20645        3.57821
Pd         0.16710       -0.91570       -1.24285
H          3.05078        1.59279        2.44037
C         -5.03021        2.13768       -0.84648
C         -4.87663        0.79916       -1.14674
C         -3.73191        0.13118       -0.75032
C         -2.74481        0.79853       -0.06121
C         -2.90286        2.13154        0.24516
C         -4.04352        2.80547       -0.14945
H         -5.92015        2.66103       -1.15616
H         -5.64450        0.27500       -1.69169
H         -3.59984       -0.91279       -0.98425
H         -2.12964        2.64728        0.78602
H         -4.16096        3.85043        0.08672
C         -2.60507       -3.94050        2.50974
C         -2.37609       -2.79857        3.25295
C         -1.97971       -1.63313        2.62134
C         -1.81360       -1.62254        1.25586
C         -2.04765       -2.75443        0.51025
C         -2.44366       -3.92059        1.13799
H         -2.91349       -4.84879        3.00131
H         -2.50433       -2.81455        4.32282
H         -1.79146       -0.73307        3.18507
H         -1.92905       -2.71285       -0.56066
H         -2.62724       -4.80969        0.55742
C          4.06987       -0.36455       -1.54472
H          3.90775        0.73558        0.30525
C          4.45825       -1.33326        0.77497
H          4.65615       -0.93374        1.78048
C          3.62629       -2.63817        0.89338
H          5.44544       -1.54007        0.33636
C          1.63371       -2.31475        2.45746
H          1.52082       -3.03377        0.42290
H          3.95964       -3.23419        1.75512
H          3.80762       -3.26754        0.01000
H          2.20791       -1.59655        3.04619
H          0.58450       -2.02006        2.51591
H          1.73621       -3.29323        2.93262
H          5.13213       -0.17775       -1.71668
H          3.84287       -1.35921       -1.93176
H          3.50470        0.35396       -2.13999
Fe         0.86426        2.46323        0.83412
C          2.23486        3.19042       -0.47790
C          1.41741        4.26853        0.05368
C          0.03052        4.00087       -0.28765
C         -0.01156        2.73338       -0.99439
C          1.34528        2.23739       -1.11452
H          3.32393        3.12053       -0.42477
H          1.78795        5.15411        0.57525
H         -0.82372        4.64294       -0.06265
H         -0.89802        2.26282       -1.42465
H          1.63969        1.34111       -1.66337
