100
-131.97188882
C         -1.53056        3.90076       -1.32112
C         -2.29186        2.65523       -1.46218
C         -0.14303        3.59138       -1.34526
C          0.03031        2.12118       -1.50391
C          1.18737        1.56448       -2.26528
C         -1.36596        1.56341       -1.54545
C         -1.79031        0.18210       -2.01136
C         -0.88338       -0.43944       -3.05473
Cl         1.07180       -0.44938        2.71587
Cl        -1.72924       -1.61669        2.26710
C          3.25079        0.59534       -3.89585
C          2.50082        1.67922       -4.30870
C          2.98822        0.00534       -2.66784
C          1.49478        2.15982       -3.50844
C          1.97160        0.46329       -1.86371
H         -3.37598        2.57736       -1.56169
H          0.66924        4.32180       -1.36565
H          0.05588       -0.76088       -2.60600
H         -1.33902       -1.31435       -3.52382
H         -0.64852        0.27245       -3.84940
H          4.04777        0.21999       -4.51667
H          2.70640        2.14673       -5.25806
H          3.61049       -0.80863       -2.33346
H          0.90317        2.99795       -3.83443
H         -1.95872        4.90579       -1.28361
P          1.87582       -0.27552       -0.22000
H         -2.78714        0.29905       -2.45150
P         -2.05086       -0.96023       -0.57584
H         -3.06684       -2.82575       -1.75108
C         -1.95849       -3.79068       -0.15754
C         -2.12963       -2.69202       -1.21148
C         -3.19617       -3.95045        0.72628
H         -3.66396        0.64898        0.17651
C         -4.92312       -1.01575       -0.36445
C         -3.63249       -0.43955        0.22291
H         -4.84071       -2.11586       -0.34394
C         -6.12089       -0.61805        0.50422
H          3.57844       -1.93377       -0.62267
H          2.80474        0.55236        1.85330
C          3.63192        3.16083        1.42209
C          2.73871        2.26511        0.54441
C          3.01797        0.77908        0.80316
C          4.49698        0.46517        0.53200
C          5.41965        1.35525        1.39088
C          5.11968        2.85077        1.16879
H          3.39617        2.98284        2.47862
H          3.41416        4.22353        1.24573
H          2.94147        2.47990       -0.51218
H          1.67492        2.48907        0.68427
H          4.70635       -0.59741        0.71123
H          4.70514        0.63307       -0.53139
H          5.27372        1.10991        2.45022
H          6.47583        1.13457        1.18196
H          5.37600        3.12252        0.13704
H          5.76177        3.47622        1.80504
C          2.30385       -4.30359       -1.32567
C          1.74451       -2.86888       -1.24892
C          2.54705       -2.01192       -0.26084
C          2.57662       -2.66497        1.12964
C          3.14531       -4.09544        1.06060
C          2.33841       -4.95615        0.06957
H          3.32048       -4.27300       -1.73692
H          1.72166       -4.91331       -2.03054
H          0.70105       -2.89776       -0.91808
H          1.72460       -2.39806       -2.24123
H          3.14100       -2.04231        1.83677
H          1.55739       -2.70478        1.53000
H          4.19303       -4.05399        0.73805
H          3.16199       -4.55723        2.05774
H          1.31273       -5.06997        0.44231
H          2.74552       -5.97568        0.01477
H         -1.11295       -3.49695        0.49035
C         -1.60608       -5.12581       -0.82114
H         -3.56623       -0.69791        1.27975
C         -5.15118       -0.59360       -1.81637
H         -1.33521       -2.78021       -1.95305
H         -3.04546       -4.72166        1.48328
H         -4.06124       -4.24340        0.13090
H         -3.44322       -3.02578        1.24644
H         -1.43481       -5.90830       -0.08024
H         -2.41833       -5.45751       -1.46864
H         -0.70943       -5.04553       -1.43692
H         -7.05022       -1.04896        0.12838
H         -5.99296       -0.94604        1.53709
H         -6.24185        0.46567        0.51668
H         -5.14948        0.49297       -1.90788
H         -4.38515       -0.99157       -2.48191
H         -6.11479       -0.94980       -2.18447
Fe        -1.05633        2.66760        0.21349
C         -2.62477        2.88193        1.59406
C         -1.81588        4.08470        1.51390
C         -0.44418        3.73929        1.83964
C         -0.40897        2.31417        2.10113
C         -1.75318        1.78876        1.96707
H         -3.70421        2.82148        1.44021
H         -2.18582        5.08899        1.29464
H          0.40091        4.42976        1.89749
H          0.45497        1.73705        2.43359
H         -2.04223        0.75449        2.15874
Pd        -0.16969       -0.79233        0.82966
