111
-148.55565710
P         -1.73571        2.80007        0.20056
P         -0.50314       -0.08667        0.53135
C         -1.60020        2.06062        1.85291
C         -1.13484        0.76958        1.98639
C         -0.64405        4.28400        0.04363
C          0.40984        4.05137       -1.01892
C         -1.94030        2.78755        2.97591
H         -2.27157        3.80744        2.86899
C         -1.83516        2.20919        4.22913
H         -2.10449        2.77513        5.10595
C         -1.38100        0.91052        4.35822
H         -1.29411        0.46251        5.33439
C         -1.01951        0.19150        3.23311
H         -0.63088       -0.81090        3.31819
Pd        -1.34186        1.07213       -1.28465
Cl        -2.47897        2.21489       -2.84009
Cl        -0.79986       -0.68972       -2.56890
C         -1.62838        5.42489       -0.28766
C         -3.38781        3.58280       -0.09387
H          1.04389        3.19614       -0.77452
H         -0.05738        3.84333       -1.98376
H          1.05275        4.92593       -1.14377
H         -1.59007        5.61788       -1.36847
H         -1.30224        6.36189        0.18827
H         -3.62574        3.39702       -1.14918
C         -3.08945        5.07777        0.11788
C         -4.47082        3.01012        0.79556
H         -0.18874        4.43441        1.03124
H         -3.24963        5.32675        1.17584
H         -3.81004        5.69408       -0.44139
H         -4.24750        3.18207        1.84888
H         -5.44028        3.46870        0.58790
H         -4.56884        1.93136        0.65387
C         -0.84224       -4.62370        0.51347
C          0.18013       -3.99606        1.27060
C          0.25420       -2.61274        1.25186
C         -0.68430       -1.86438        0.59012
C         -1.74077       -2.46217       -0.04477
C         -1.86749       -3.84109       -0.07646
O         -0.81567       -6.02906        0.30961
C          1.22501       -4.78804        2.07224
H          1.06547       -2.09763        1.73748
H         -2.45201       -1.83164       -0.55011
C         -3.07196       -4.46211       -0.80040
C          3.79985        1.21583       -0.18765
C          3.26333        0.12141       -0.91347
C          1.94829       -0.24037       -0.67596
C          1.20945        0.38104        0.29465
C          1.75315        1.37414        1.06676
C          3.06024        1.78973        0.87831
O          5.05818        1.76427       -0.55239
C          4.06236       -0.64927       -1.97523
H          1.46634       -0.99548       -1.27245
H          1.13436        1.83368        1.81678
C          3.64920        2.86155        1.80952
C          2.44811       -5.06095        1.18367
C          1.68439       -3.98339        3.30953
C          0.63999       -6.11318        2.59382
C         -4.30247       -3.53097       -0.71143
C         -2.71937       -4.66543       -2.28197
C         -3.47686       -5.80217       -0.16018
C         -0.06742       -6.43335       -0.83044
H          2.17571       -5.63674        0.30242
H          2.89273       -4.12600        0.84403
H          3.20989       -5.61833        1.72814
H          2.25428       -3.09928        3.02786
H          0.82846       -3.66517        3.90416
H          2.32844       -4.58867        3.94708
H          1.36092       -6.64151        3.21719
H         -0.25352       -5.92970        3.18960
H          0.36504       -6.77536        1.77685
H         -5.18922       -4.02297       -1.11040
H         -4.50813       -3.25800        0.32325
H         -4.15930       -2.61731       -1.28636
H         -2.45585       -3.71615       -2.74797
H         -1.87119       -5.33588       -2.39700
H         -3.56069       -5.08919       -2.82960
H         -3.68670       -5.67240        0.90098
H         -4.36891       -6.20965       -0.63525
H         -2.68688       -6.54280       -0.25547
H         -0.71179       -6.98705       -1.51311
H          0.34364       -5.56306       -1.34374
H          0.74509       -7.09077       -0.52156
C          4.97893        2.79021       -1.53410
C          3.83309       -0.00168       -3.34921
C          5.56420       -0.66900       -1.63825
C          3.59763       -2.12265       -2.03931
C          2.97937        2.80344        3.20148
C          5.15651        2.63398        2.02431
C          3.40616        4.25540        1.21168
H          2.77482       -0.01608       -3.60919
H          4.16043        1.03530       -3.35589
H          4.37955       -0.53318       -4.12779
H          6.11943       -1.27014       -2.35786
H          5.98765        0.33199       -1.65031
H          5.72899       -1.08896       -0.64653
H          4.24331       -2.70400       -2.69705
H          3.62723       -2.58046       -1.05113
H          2.58409       -2.21104       -2.42737
H          1.93549        3.11145        3.15973
H          3.02391        1.79490        3.61171
H          3.48173        3.47170        3.90050
H          5.56427        3.35271        2.73469
H          5.34221        1.63231        2.41049
H          5.70955        2.74090        1.09429
H          3.85374        4.34632        0.22514
H          3.83155        5.03178        1.84705
H          2.33945        4.45136        1.11269
H          5.43654        3.70066       -1.14734
H          5.52611        2.48741       -2.42660
H          3.93853        2.98767       -1.79567
