64
-97.20921583
Cl        -1.47488       -1.49273       -2.59174
Cl         1.64696       -1.41594       -2.92213
P          1.95564       -0.60444        0.29998
C          2.22628       -2.27450        1.05030
C          3.71589       -0.11776       -0.02397
P         -1.28559       -0.16527        0.37385
C          1.22258        0.58389        1.47803
C         -0.20853        0.80853        1.49390
C         -0.48126        1.91073        2.40584
C          0.78633        2.37005        2.94649
C          1.84076        1.55875        2.36313
H         -1.46141        2.33619        2.62650
H          0.92314        3.18581        3.65975
Pd         0.24180       -0.97422       -1.23328
H          2.91142        1.65561        2.55474
C         -4.90236        2.34257       -0.80663
C         -4.15667        1.71866       -1.78680
C         -3.07188        0.93918       -1.43301
C         -2.72615        0.79854       -0.10822
C         -3.48126        1.40096        0.87250
C         -4.57113        2.17879        0.52390
H         -5.75022        2.94949       -1.07973
H         -4.42388        1.83112       -2.82479
H         -2.50698        0.41361       -2.18382
H         -3.22508        1.24778        1.90834
H         -5.16051        2.65464        1.29044
C         -2.69781       -3.99292        2.36909
C         -2.35379       -2.90071        3.14209
C         -1.92922       -1.73261        2.53429
C         -1.85047       -1.66937        1.16238
C         -2.19605       -2.75202        0.38852
C         -2.62108       -3.92082        0.99176
H         -3.02850       -4.90331        2.84192
H         -2.41489       -2.95743        4.21651
H         -1.65383       -0.87099        3.12159
H         -2.12738       -2.67188       -0.68445
H         -2.89098       -4.77173        0.38811
C          4.04339       -0.11814       -1.50063
H          3.85014        0.88659        0.39878
C          4.51496       -1.16661        0.77474
H          4.72666       -0.78678        1.78504
C          3.74031       -2.50774        0.88100
H          5.49640       -1.32134        0.30315
C          1.76756       -2.28110        2.49231
H          1.64440       -2.99253        0.45620
H          4.11692       -3.10810        1.72171
H          3.92815       -3.10907       -0.02045
H          2.31787       -1.53805        3.07299
H          0.70606       -2.03841        2.57236
H          1.92728       -3.25525        2.96056
H          5.08586        0.15401       -1.68015
H          3.88344       -1.11003       -1.92632
H          3.41417        0.58082       -2.05421
Fe         0.75655        2.45552        0.88423
C         -0.21259        2.84055       -0.88817
C          1.10802        2.30057       -1.14475
C          2.07956        3.18556       -0.53184
C          1.35820        4.27900        0.09585
C         -0.06116        4.06774       -0.12873
H         -1.15635        2.41488       -1.22950
H          1.33023        1.41671       -1.74515
H          3.16524        3.07428       -0.57232
H          1.80567        5.12269        0.62572
H         -0.87115        4.71853        0.20790
