111
-148.55647097
P         -2.21506        2.44793        0.21976
P         -0.10759        0.07208        0.57447
C         -1.66785        1.95519        1.87335
C         -0.77529        0.91581        2.02093
C         -2.09447        4.27660       -0.01987
C         -0.95771        4.61610       -0.95955
C         -2.14529        2.61794        2.98542
H         -2.84298        3.43038        2.86118
C         -1.72615        2.23427        4.24775
H         -2.09870        2.75043        5.11747
C         -0.83153        1.19128        4.39362
H         -0.50406        0.89334        5.37603
C         -0.35319        0.53067        3.27578
H          0.35122       -0.28100        3.37079
Pd        -1.04454        1.12926       -1.25106
Cl        -2.31825        1.95816       -2.90362
Cl         0.28555       -0.04404       -2.62530
C         -3.49338        4.65245       -0.54461
C         -4.02848        2.19920       -0.05075
H         -0.00059        4.26193       -0.56870
H         -1.10800        4.14455       -1.93275
H         -0.88107        5.69388       -1.12181
H         -3.46366        4.67079       -1.64278
H         -3.75543        5.67686       -0.23931
H         -4.12397        1.73743       -1.04257
C         -4.57559        3.63823       -0.07609
C         -4.63323        1.30858        1.01370
H         -1.92445        4.71079        0.97395
H         -4.91661        3.90557        0.93351
H         -5.47044        3.69584       -0.71432
H         -4.13709        0.33589        1.04464
H         -4.52853        1.75813        2.00244
H         -5.69854        1.14191        0.83791
C         -1.29334       -4.31997        0.42172
C         -0.09970       -3.94903        1.09288
C          0.25464       -2.60989        1.11326
C         -0.55687       -1.65807        0.55299
C         -1.76506       -1.99899        0.00272
C         -2.18050       -3.31907       -0.04979
O         -1.58361       -5.69276        0.20017
C          0.81435       -4.98179        1.77190
H          1.17647       -2.29015        1.56686
H         -2.38246       -1.21339       -0.39812
C         -3.56076       -3.63990       -0.64489
C          4.26893        1.12090       -0.09848
C          3.80865       -0.17565       -0.44405
C          2.47443       -0.47805       -0.22921
C          1.63493        0.42105        0.37272
C          2.09495        1.64276        0.79081
C          3.41832        2.00905        0.60839
O          5.56563        1.54432       -0.49427
C          4.71574       -1.23514       -1.08859
H          2.06244       -1.41453       -0.56184
H          1.39400        2.31802        1.25136
C          3.89528        3.36894        1.14174
C          1.61232       -4.33451        2.92633
C         -0.01196       -6.12818        2.38291
C          1.81155       -5.53854        0.74484
C         -4.54971       -2.47955       -0.38763
C         -3.42353       -3.83626       -2.16243
C         -4.16954       -4.89618        0.00384
C         -1.08977       -6.20035       -1.03306
H          2.16184       -5.08997        3.48754
H          2.34349       -3.61673        2.55706
H          0.94565       -3.82228        3.61964
H          0.62721       -6.83032        2.91762
H         -0.74917       -5.73849        3.08409
H         -0.54350       -6.68598        1.61569
H          1.29911       -6.03461       -0.07524
H          2.41549       -4.73722        0.32152
H          2.48475       -6.26078        1.20599
H         -4.28030       -1.58651       -0.94963
H         -5.55829       -2.75600       -0.69405
H         -4.58037       -2.22491        0.67139
H         -4.38889       -4.05747       -2.61682
H         -3.02738       -2.93615       -2.63211
H         -2.74637       -4.65439       -2.39527
H         -4.23186       -4.77719        1.08502
H         -5.17357       -5.08543       -0.37509
H         -3.57004       -5.77965       -0.19948
H         -0.51817       -5.43416       -1.55842
H         -0.45332       -7.06426       -0.84188
H         -1.92215       -6.52478       -1.65704
C          5.60635        2.16706       -1.77230
C          6.16854       -1.09873       -0.59837
C          4.24555       -2.65763       -0.70845
C          4.65328       -1.09160       -2.61691
C          3.69005        4.44032        0.05999
C          3.08794        3.77596        2.39594
C          5.37564        3.31226        1.56022
H          6.60158       -0.14767       -0.89745
H          6.21368       -1.15886        0.48851
H          6.79621       -1.88957       -1.00837
H          4.95798       -3.40643       -1.05392
H          4.15195       -2.75821        0.37259
H          3.28522       -2.89812       -1.16192
H          5.27352       -1.84231       -3.10584
H          3.63045       -1.21354       -2.97275
H          4.99799       -0.11095       -2.93558
H          2.63968        4.50644       -0.22235
H          4.00622        5.42043        0.41616
H          4.25900        4.20957       -0.83724
H          3.10349        2.98153        3.14168
H          3.50822        4.67179        2.85251
H          2.04983        3.99866        2.15344
H          6.02109        3.10678        0.70996
H          5.53579        2.52703        2.29828
H          5.69623        4.25820        1.99599
H          6.00133        3.17807       -1.67409
H          6.26844        1.60660       -2.43205
H          4.60701        2.20682       -2.20770
