45
-71.81669919
C          2.30824        1.25188        2.44259
P          1.51146        0.87439        0.84566
P         -1.02227        0.17504       -0.88382
C         -0.36524       -0.33841       -2.50730
Cl         1.49733       -1.89540        2.28657
H          1.55426        1.52037        3.17698
H          0.71397       -0.21741       -2.52459
Cl        -1.18485       -2.75504        0.33046
C          0.45897        2.21297        0.24558
C         -0.63665        1.89973       -0.52860
C         -1.44018        2.89966       -1.03614
C         -1.13868        4.22345       -0.76861
C         -0.03532        4.53880        0.00092
C          0.76804        3.53208        0.50728
H         -2.29714        2.63693       -1.63545
H         -1.76409        5.00762       -1.16245
H          0.20211        5.56984        0.20541
H          1.63750        3.76746        1.09906
Pd         0.12817       -0.99160        0.75498
H         -0.79946        0.27026       -3.29519
H          3.00433        2.07771        2.32717
H         -0.60435       -1.38242       -2.68879
C         -5.48345       -0.55294       -0.36744
C         -4.69217       -0.25512        0.72421
C         -3.33685       -0.03548        0.55302
C         -2.78358       -0.11901       -0.70439
C         -3.56871       -0.41278       -1.79620
C         -4.92429       -0.63104       -1.62768
H         -6.53910       -0.72570       -0.23551
H         -5.12743       -0.19598        1.70822
H         -2.70547        0.19913        1.39585
H         -3.12162       -0.47120       -2.77524
H         -5.54231       -0.86324       -2.47944
C          4.46851       -0.35605       -2.37778
C          3.76879        0.82826       -2.50546
C          2.87792        1.21219       -1.51945
C          2.69923        0.41187       -0.41484
C          3.38563       -0.77326       -0.28767
C          4.27766       -1.15968       -1.27071
H          5.16230       -0.65594       -3.14612
H          3.91446        1.45172       -3.37225
H          2.31767        2.12895       -1.60781
H          3.19496       -1.39908        0.56958
H          4.81612       -2.08821       -1.17527
H          2.85146        0.38073        2.79741
