87
-129.18454845
P         -1.47533       -0.40031       -0.29606
P          1.76180        0.39983        0.13763
C         -1.14925        0.80519       -1.58897
C          1.64402       -0.75859       -1.24797
C         -0.07691        0.61639       -2.45224
C          0.16506        1.57711       -3.45454
C         -0.67813        2.67119       -3.55787
C         -1.73888        2.83749       -2.69265
C         -1.97105        1.89918       -1.70662
C          2.40537       -1.89746       -1.13105
C          2.32677       -2.89628       -2.08122
C          1.46770       -2.75392       -3.14823
C          0.68286       -1.62238       -3.28524
C          0.77573       -0.59524       -2.32597
Cl         1.18853        0.26119        3.30552
Cl        -1.40522       -1.62055        2.67927
H         -2.38168        3.69783       -2.78215
H         -2.80027        2.01843       -1.02932
H          3.06365       -2.01053       -0.28540
H          2.92710       -3.78585       -1.98262
H         -0.49005        3.40339       -4.32471
H          1.39386       -3.53332       -3.88767
C         -2.14133       -4.50977       -2.10797
C         -2.73128       -3.39870       -2.69472
C         -2.52703       -2.15335       -2.11069
C         -1.74495       -2.03202       -0.98585
C         -1.16882       -3.13821       -0.40741
C         -1.36484       -4.38369       -0.97286
H         -2.29951       -5.47957       -2.54817
C         -3.58676       -3.54159       -3.90407
H         -2.97352       -1.27312       -2.54366
H         -0.58151       -3.02467        0.48915
H         -0.91452       -5.25470       -0.52579
C         -5.11387        0.91313        2.11115
C         -5.15688       -0.26512        1.39195
C         -4.05623       -0.66606        0.65845
C         -2.92477        0.11491        0.64591
C         -2.87916        1.28756        1.36377
C         -3.97215        1.70262        2.11357
H         -5.97097        1.22823        2.68154
H         -6.04617       -0.87374        1.40453
H         -4.07226       -1.58734        0.09941
H         -1.98871        1.89182        1.34062
C         -3.91921        2.98159        2.87269
C          5.75675       -0.08220        2.26932
C          5.54897        0.98939        1.42363
C          4.33401        1.13486        0.78059
C          3.33618        0.21124        0.98899
C          3.54260       -0.85824        1.82966
C          4.75935       -1.02417        2.47993
H          6.69868       -0.19243        2.77913
H          6.33105        1.71432        1.26776
H          4.15650        1.96959        0.12241
H          2.74554       -1.56253        2.00260
C          4.96148       -2.16037        3.41950
C          0.86201        4.76001       -0.77194
C          1.75815        4.07092       -1.56582
C          2.04993        2.74808       -1.28973
C          1.44145        2.12835       -0.22412
C          0.57604        2.82255        0.59001
C          0.26569        4.15003        0.32320
H          0.61933        5.78450       -0.99719
H          2.21890        4.55873       -2.40907
H          2.73156        2.18888       -1.91065
H          0.16008        2.33852        1.45684
C         -0.71950        4.87941        1.16677
Pd         0.02549       -0.36464        1.49334
C          1.30817        1.44590       -4.40004
C         -0.24072       -1.52202       -4.44988
H          2.01417        0.68253       -4.07124
H          0.95863        1.17522       -5.39712
H          1.85518        2.38631       -4.48120
H          0.30605       -1.26991       -5.35923
H         -0.75442       -2.46907       -4.62042
H         -1.00383       -0.75935       -4.29199
H         -3.66204       -2.59905       -4.44839
H         -3.17782       -4.28704       -4.58772
H         -4.59578       -3.85263       -3.62992
H         -4.66988        3.00406        3.66384
H         -2.94243        3.11735        3.33946
H         -4.09894        3.83171        2.21306
H          6.01996       -2.40068        3.52864
H          4.56650       -1.91857        4.40718
H          4.45228       -3.05750        3.06435
H         -1.73264        4.73555        0.78837
H         -0.69183        4.52474        2.19812
H         -0.51260        5.95039        1.17866
