171
-217.83830535
P         -1.70758        0.66615        0.24614
P          1.53299       -0.18606       -0.26299
C         -0.90859        1.87392       -0.83317
C          0.68601       -0.75391       -1.74588
C         -0.21506        1.54872       -1.99352
C          0.45074        2.57326       -2.69245
C          0.38319        3.87321       -2.22046
C         -0.31207        4.17720       -1.07011
C         -0.94933        3.16908       -0.37325
C          0.84856       -2.04727       -2.17642
C          0.20166       -2.48635       -3.31458
C         -0.61165       -1.62027       -4.01573
C         -0.79546       -0.31261       -3.59541
C         -0.11495        0.13771       -2.44784
Cl         1.98027        0.91602        2.82478
Cl        -1.05950        0.00960        3.42110
C         -1.68384        0.60024       -4.36618
C          1.24398        2.29329       -3.92072
H         -0.35145        5.19236       -0.71034
H         -1.47643        3.38747        0.54390
H          1.48973       -2.71333       -1.62494
H          0.33002       -3.50212       -3.65121
H          0.89534        4.65123       -2.76130
H         -1.10841       -1.95700       -4.90953
C         -2.93114       -3.38641       -1.37036
C         -3.53938       -2.24155       -1.86922
C         -3.11091       -1.01433       -1.37918
C         -2.12724       -0.94783       -0.42345
C         -1.55535       -2.09306        0.07882
C         -1.94496       -3.34070       -0.39148
H         -3.25535       -4.33860       -1.74572
H         -3.55447       -0.09846       -1.72782
H         -0.81715       -2.01711        0.85761
C         -5.62299        2.48454        1.61766
C         -4.81875        1.86767        2.56779
C         -3.61427        1.32545        2.14164
C         -3.23675        1.40829        0.82613
C         -4.04104        2.02716       -0.09949
C         -5.25859        2.57851        0.28034
H         -6.56291        2.90265        1.92820
H         -2.95175        0.83592        2.83109
H         -3.70533        2.08073       -1.12124
C          3.92573       -3.66532        1.45530
C          2.92860       -3.10913        2.24724
C          2.18849       -2.06014        1.72164
C          2.44675       -1.56961        0.46374
C          3.45094       -2.12198       -0.29301
C          4.20238       -3.18931        0.17970
H          4.50483       -4.48083        1.84340
H          1.41581       -1.61568        2.32133
H          3.65235       -1.71979       -1.27061
C          4.58438        2.95446       -1.42702
C          4.42325        1.83735       -2.23784
C          3.47024        0.89651       -1.86417
C          2.73199        1.06653       -0.71837
C          2.90892        2.17407        0.07011
C          3.83264        3.15007       -0.27445
H          5.32948        3.67877       -1.69672
H          3.28691        0.02821       -2.47288
H          2.33990        2.26496        0.97796
Pd         0.18073        0.40074        1.58520
C         -4.15270       -3.00401       -4.18049
C         -4.68278       -2.36045       -2.88766
C         -5.28335       -0.98266       -3.23143
C         -5.80227       -3.23672       -2.29412
H         -3.37199       -2.38832       -4.62406
H         -3.73277       -3.99065       -3.98798
H         -4.94957       -3.11646       -4.91545
H         -6.10092       -1.08384       -3.94501
H         -5.68086       -0.49638       -2.34066
H         -4.53711       -0.32704       -3.67809
H         -6.64426       -3.31236       -2.98201
H         -5.45042       -4.24681       -2.08832
H         -6.16753       -2.81201       -1.35920
C         -1.74853       -4.64989        1.72683
C         -1.35359       -4.61048        0.23950
C          0.17945       -4.59658        0.10725
C         -1.88121       -5.88827       -0.44115
H         -2.83273       -4.66644        1.83590
H         -1.34650       -5.53676        2.21610
H         -1.37658       -3.77363        2.25574
H          0.62187       -5.47086        0.58426
H          0.47381       -4.60516       -0.94128
H          0.60851       -3.71174        0.57250
H         -2.96232       -5.97407       -0.33392
H         -1.63587       -5.89564       -1.50310
H         -1.43563       -6.77622        0.00725
C         -5.47160        3.22835        4.57062
C         -5.27464        1.79930        4.03226
C         -4.23510        1.08400        4.91792
C         -6.60219        1.02399        4.11545
H         -5.77640        3.21256        5.61688
H         -4.54513        3.79759        4.49735
H         -6.23734        3.76177        4.00867
H         -4.07560        0.05837        4.58602
H         -3.27795        1.60466        4.89854
H         -4.56936        1.04680        5.95455
H         -6.94220        0.94218        5.14769
H         -7.38669        1.51920        3.54444
H         -6.48423        0.01618        3.71772
C         -6.44961        4.71191       -0.28844
C         -6.19614        3.25801       -0.72741
C         -7.52858        2.48825       -0.77689
C         -5.58987        3.27584       -2.14493
H         -5.51154        5.26304       -0.22426
H         -7.09588        5.22684       -0.99910
H         -6.92974        4.75365        0.68846
H         -8.02171        2.48830        0.19451
H         -8.21176        2.93631       -1.49823
H         -7.36287        1.45099       -1.06769
H         -6.26321        3.76680       -2.84741
H         -4.64440        3.81784       -2.16038
H         -5.41448        2.26420       -2.51032
C          1.17836       -3.98980        3.82041
C          2.65290       -3.56920        3.68630
C          2.94285       -2.40072        4.64719
C          3.53818       -4.76581        4.08309
H          0.96315       -4.34065        4.82946
H          0.50867       -3.15689        3.61086
H          0.94524       -4.79677        3.12676
H          2.30412       -1.54470        4.43195
H          2.77086       -2.69382        5.68255
H          3.97837       -2.07434        4.55461
H          3.36460       -5.61659        3.42432
H          4.59519       -4.50392        4.04054
H          3.32014       -5.08679        5.10162
C          4.65346       -4.29832       -2.02114
C          5.29527       -3.78657       -0.71754
C          6.01743       -4.96264       -0.03306
C          6.33356       -2.69687       -1.04457
H          4.17724       -3.48879       -2.57330
H          5.40083       -4.75064       -2.67274
H          3.89280       -5.04886       -1.80666
H          6.78618       -5.37653       -0.68555
H          6.50475       -4.64166        0.88740
H          5.32018       -5.76563        0.20548
H          5.87771       -1.86311       -1.57693
H          6.78077       -2.30487       -0.13134
H          7.13317       -3.09387       -1.66967
C          6.77063        1.37738       -2.96135
C          5.33562        1.63209       -3.45659
C          5.31585        2.88584       -4.35217
C          4.88629        0.42557       -4.30480
H          7.14402        2.22545       -2.38814
H          6.80585        0.49857       -2.31787
H          7.44967        1.21185       -3.79758
H          4.30659        3.10004       -4.70077
H          5.68091        3.76352       -3.82077
H          5.94844        2.74556       -5.22858
H          5.52162        0.31259       -5.18314
H          4.94797       -0.50194       -3.73609
H          3.86085        0.55047       -4.65171
C          5.05614        5.35291        0.08821
C          3.99683        4.37642        0.63342
C          4.43140        3.91282        2.03639
C          2.65057        5.11828        0.72723
H          6.03481        4.87712        0.02853
H          4.78402        5.71191       -0.90423
H          5.15179        6.22206        0.73891
H          3.68543        3.25877        2.48632
H          5.37038        3.36213        1.98583
H          4.57338        4.76368        2.70230
H          2.73445        6.00218        1.35910
H          2.31996        5.43890       -0.26035
H          1.87502        4.47968        1.14866
H         -2.48210        0.04707       -4.86268
H          0.75237        2.70165       -4.80487
H         -1.12286        1.13401       -5.13417
H         -2.15025        1.33938       -3.71278
H          1.38415        1.22293       -4.07504
H          2.23245        2.74711       -3.84758
