105
-153.06249161
Cl        -0.02698        1.94112        3.10877
Pd        -0.44969        1.32003        0.98568
P         -1.06435        0.53641       -1.14657
N         -0.56390       -0.93190       -1.98075
C          0.27891       -1.97895       -1.61290
C          0.35110       -2.48360       -0.29050
C          1.25032       -3.53348       -0.00316
C          1.29762       -4.09451        1.39938
C          2.49262       -5.01860        1.68518
C          2.73502       -5.98431        0.52260
C          3.01096       -5.20678       -0.77195
C          2.03278       -4.08670       -1.02116
C          1.90860       -3.60284       -2.31684
C          1.04753       -2.57878       -2.60913
H          0.97558       -2.20268       -3.61483
H          2.51235       -4.03589       -3.09642
H          4.02286       -4.78547       -0.74176
H          3.56046       -6.67342        0.75135
H          3.39221       -4.41020        1.84275
H          1.30725       -3.26180        2.11122
C         -0.65321       -2.09101        0.73006
C         -0.22753       -1.49578        1.94951
C         -1.15344       -1.36577        2.98861
C         -2.44650       -1.79330        2.83939
C         -2.88413       -2.37185        1.65434
C         -4.30995       -2.86540        1.59424
C         -4.61035       -3.79218        0.40609
C         -3.94585       -3.27747       -0.87301
C         -2.42333       -3.17589       -0.69567
C         -1.99257       -2.50594        0.58695
H         -1.97647       -4.17638       -0.73281
H         -4.34993       -2.28791       -1.11967
H         -5.69447       -3.90374        0.26229
H         -4.97947       -1.99905        1.56508
H         -3.14372       -1.68356        3.65278
H         -0.83948       -0.90328        3.90787
N          1.07309       -1.00067        2.12941
P          1.62950        0.22793        0.99447
C          2.63065       -0.32257       -0.37308
C          2.46444        0.29029       -1.59004
C          3.26930       -0.07368       -2.65404
C          4.24680       -1.04773       -2.49694
C          4.41881       -1.62944       -1.24729
C          3.61084       -1.26601       -0.18481
H          3.73500       -1.71411        0.78828
H          5.18642       -2.37208       -1.11261
C          5.11734       -1.43846       -3.63959
H          3.13897        0.39486       -3.61441
H          1.69821        1.03898       -1.70204
C          2.54992        1.54175        1.80084
C          3.27340        1.28261        2.93987
C          3.98297        2.30258        3.54773
C          3.96945        3.58622        3.01856
C          3.24796        3.82176        1.85588
C          2.53984        2.80085        1.24828
H          1.97610        2.98144        0.34604
H          3.24250        4.81026        1.42938
C          4.74909        4.67893        3.66321
H          4.55294        2.10683        4.43990
H          3.28793        0.28433        3.34634
H          1.23583       -0.57825        3.03434
H         -0.82808       -0.84398       -2.95414
C         -0.61520        1.94134       -2.18351
C          0.05615        1.73573       -3.36675
C          0.41889        2.81229       -4.15503
C          0.11200        4.10823       -3.76450
C         -0.58100        4.29812       -2.57734
C         -0.93878        3.21861       -1.79302
H         -1.47394        3.36608       -0.87057
H         -0.83869        5.29751       -2.27074
C          0.48104        5.26806       -4.62250
H          0.94544        2.65146       -5.08031
H          0.31140        0.73401       -3.66813
C         -2.85942        0.48015       -1.12338
C         -3.51309        0.64136       -2.32227
C         -4.89551        0.59862       -2.36597
C         -5.63198        0.39518       -1.20719
C         -4.95434        0.24582       -0.00566
C         -3.57262        0.27119        0.03189
H         -3.04486        0.14180        0.96304
H         -5.51792        0.12088        0.90285
C         -7.12029        0.37790       -1.24254
H         -5.41062        0.72992       -3.30215
H         -2.93846        0.80467       -3.22084
Cl        -2.29281        2.62028        0.99329
H          3.00210       -5.88702       -1.63328
H          2.34349       -5.57049        2.62400
H          1.84984       -6.61825        0.38570
H          0.36039       -4.63118        1.58851
H         -4.19826       -3.91892       -1.72922
H         -1.99459       -2.63072       -1.54335
H         -4.54227       -3.37697        2.53718
H         -4.23766       -4.80051        0.62646
H          5.42943       -2.48060       -3.55730
H          4.59349       -1.32492       -4.58978
H          6.01463       -0.81908       -3.67297
H          4.30615        5.65409        3.45603
H          4.77936        4.55349        4.74646
H          5.77633        4.69063        3.29628
H          1.38782        5.06300       -5.19330
H         -0.31763        5.49629       -5.32958
H          0.66361        6.15992       -4.02137
H         -7.52370        1.37001       -1.03557
H         -7.48841        0.06158       -2.21951
H         -7.52232       -0.31145       -0.49861
