105
-153.05821019
Cl         0.79209        3.79336        1.28830
Pd        -0.03012        2.02435        0.17079
P         -0.73416        0.30834       -1.32448
N          0.10081       -1.10695       -1.99702
C          0.18119       -2.44398       -1.61275
C         -0.15096       -2.95089       -0.32426
C          0.17447       -4.28883       -0.00683
C          0.05658       -4.76677        1.42265
C         -0.09559       -6.28936        1.54300
C          1.01589       -6.99673        0.76208
C          0.98302       -6.60331       -0.72457
C          0.68528       -5.14486       -0.98570
C          0.92135       -4.64803       -2.25996
C          0.69693       -3.32974       -2.55879
H          0.93116       -2.95674       -3.54095
H          1.31150       -5.31103       -3.01376
H          1.93826       -6.85676       -1.20184
H          1.98846       -6.72313        1.19036
H         -0.10033       -6.60420        2.59617
H          0.95444       -4.44428        1.96355
C         -0.75402       -2.10809        0.74393
C          0.05016       -1.11465        1.35641
C         -0.42854       -0.43817        2.47746
C         -1.67347       -0.71911        2.97617
C         -2.49330       -1.67372        2.38132
C         -3.84114       -1.93819        3.01112
C         -4.75933       -2.88271        2.21499
C         -3.96120       -3.99928        1.53447
C         -2.91196       -3.40052        0.58817
C         -2.03661       -2.37123        1.25883
H         -2.29602       -4.19299        0.14785
H         -4.62735       -4.69022        0.99862
H         -5.29586       -2.30923        1.44994
H         -4.34280       -0.97594        3.17500
H         -2.03479       -0.19078        3.84216
H          0.18312        0.31783        2.93376
N          1.23027       -0.76518        0.71023
P          1.82632        0.83111        0.94854
C          3.08473        1.20627       -0.26783
C          4.05922        2.13404        0.01200
C          5.00264        2.44741       -0.94971
C          4.96703        1.84172       -2.19896
C          3.97636        0.90478       -2.45929
C          3.03524        0.59167       -1.49696
H          2.24271       -0.10465       -1.71738
H          3.94338        0.42632       -3.42335
C          5.99219        2.16395       -3.22987
H          5.77208        3.16934       -0.73557
H          4.07308        2.61315        0.97803
C          2.49787        0.91725        2.60859
C          2.39745        2.05696        3.36890
C          2.92429        2.08241        4.64572
C          3.55107        0.96096        5.17263
C          3.65062       -0.17954        4.38672
C          3.12154       -0.20099        3.10816
H          3.18137       -1.08753        2.49617
H          4.14379       -1.05109        4.78199
C          4.14124        0.99325        6.53953
H          2.85194        2.97580        5.24218
H          1.90337        2.92039        2.95738
H          1.09960       -0.86836       -0.29339
H          0.26009       -0.90596       -2.97710
C         -0.72672        1.48236       -2.69847
C          0.46326        2.04815       -3.08957
C          0.48820        2.96209       -4.12634
C         -0.68119        3.31438       -4.78526
C         -1.87581        2.74195       -4.37115
C         -1.89600        1.82806       -3.33406
H         -2.82689        1.39472       -3.00870
H         -2.79227        3.02226       -4.86176
C         -0.66119        4.32320       -5.88029
H          1.41890        3.41329       -4.42546
H          1.37099        1.78693       -2.57486
C         -2.45457       -0.12735       -1.06857
C         -3.03092       -0.97627       -1.98360
C         -4.37629       -1.28545       -1.88628
C         -5.14923       -0.75330       -0.86388
C         -4.54853        0.10122        0.05120
C         -3.20588        0.41359       -0.05279
H         -2.74428        1.08728        0.65013
H         -5.14034        0.52822        0.84260
C         -6.59970       -1.07801       -0.77289
H         -4.83385       -1.94451       -2.60417
H         -2.42405       -1.38943       -2.77404
Cl        -1.89159        3.17045       -0.35008
H          0.22926       -7.20554       -1.24591
H         -1.07115       -6.58916        1.13997
H          0.93981       -8.08694        0.87988
H         -0.77444       -4.26389        1.92839
H         -3.45808       -4.60496        2.29857
H         -3.41477       -2.92727       -0.26101
H         -3.67351       -2.35186        4.01283
H         -5.54042       -3.30461        2.86299
H          5.56893        2.11267       -4.23406
H          6.38982        3.17011       -3.08998
H          6.82599        1.46242       -3.17941
H          4.10273        0.00885        7.00810
H          5.18491        1.30845        6.50330
H          3.60207        1.68782        7.18522
H         -0.79166        5.32976       -5.48070
H          0.28462        4.29640       -6.42324
H         -1.46082        4.14007       -6.59938
H         -7.15799       -0.58050       -1.56704
H         -6.76552       -2.15229       -0.86654
H         -7.02017       -0.75876        0.18172
