72
-108.39262737
Cl        -1.78396        0.67446        2.71183
Cl         0.89733       -1.13943        2.71594
P          1.18422       -1.04279       -0.27342
P         -2.25348        0.11403       -0.37510
C         -3.24301       -1.49647       -0.18634
C         -3.61937       -1.69230        1.28389
C         -4.49781       -1.43268       -1.04981
C         -3.33965        1.64926       -0.08293
C         -4.14346        1.98346       -1.34607
C         -1.44896        0.43890       -2.05278
C         -1.48009       -0.71848       -3.02923
C          1.14076        0.31011       -1.49201
C         -0.04625        1.01492       -1.97619
C          0.42896        2.11455       -2.81780
C          1.87712        2.06275       -2.87470
C          2.31572        0.94380       -2.06239
C         -2.37824       -2.67938       -0.60437
H         -2.73741       -1.68524        1.92422
H         -4.29987       -0.92546        1.64321
H         -4.25861       -1.21030       -2.08870
H         -5.19128       -0.67350       -0.69192
C         -4.30496        1.47498        1.08551
H         -3.51996        2.42198       -2.12445
H         -4.91788        2.71880       -1.12148
H         -2.07782        1.23122       -2.46948
H         -1.12735       -0.40710       -4.01464
H         -2.48054       -1.12996       -3.15715
H         -0.81177       -1.51073       -2.70062
H         -0.20827        2.78673       -3.39552
H          2.52239        2.72899       -3.45166
Pd        -0.52048       -0.32651        1.16472
H          3.34788        0.63231       -1.88734
C         -2.37148        2.78159        0.21887
H         -4.63454        1.10399       -1.75873
H         -3.78866        1.14927        1.98602
H         -4.79402        2.42176        1.31922
H         -5.09356        0.76222        0.85144
H         -1.86400        2.60874        1.16715
H         -1.62136        2.86939       -0.56840
H         -2.89629        3.73621        0.29384
H         -4.11866       -2.65207        1.42619
H         -5.02653       -2.38707       -1.02910
H         -2.13246       -2.65807       -1.66253
H         -1.45244       -2.69885       -0.03226
H         -2.89654       -3.62145       -0.41801
C          2.88059       -1.17006        0.34841
C          3.78926       -2.01486       -0.24083
C          4.99168       -1.87438        0.45359
C          4.76655       -0.94520        1.43903
O          3.47687       -0.50323        1.38209
H          3.59623       -2.66117       -1.08281
H          5.91466       -2.39459        0.25611
H          5.49384       -0.60157        2.16432
C          0.78535       -2.67046       -0.93216
C          0.83619       -3.78910       -0.13828
C          0.48772       -4.87609       -0.94192
C          0.23898       -4.37206       -2.19540
O          0.41522       -3.01726       -2.20265
H          1.09767       -3.80577        0.90832
H          0.42741       -5.90833       -0.63809
H         -0.05650       -4.95054       -3.06188
Fe         1.24935        2.24774       -0.93093
C          2.20848        2.13682        0.88208
C          0.86722        2.65136        1.05050
C          0.74373        3.85792        0.25320
C          2.01526        4.09478       -0.40405
C          2.91592        3.02240       -0.02257
H          2.59977        1.21797        1.31870
H          0.10904        2.22152        1.70798
H         -0.12580        4.51742        0.21149
H          2.25605        4.93623       -1.05748
H          3.95612        2.91447       -0.33867
