75
-122.80578080
P          1.90140       -0.11861       -0.08943
C          3.31932       -0.55889       -1.10779
C          3.36015       -0.12552       -2.41275
C          4.45386       -0.43014       -3.20290
C          5.50016       -1.16159       -2.67668
C          5.45707       -1.58727       -1.36379
C          4.36216       -1.28188       -0.57658
H          4.31682       -1.60278        0.45134
H          6.27375       -2.15775       -0.95292
H          6.35163       -1.40174       -3.29229
H          4.48678       -0.09874       -4.22772
H          2.53493        0.44622       -2.80760
C          1.85538       -1.12732        1.40403
C          1.79573       -0.53732        2.64574
C          1.77046       -1.32404        3.78229
C          1.79976       -2.69975        3.66776
C          1.84899       -3.28938        2.42053
C          1.87552       -2.49786        1.28838
H          1.89876       -2.93959        0.30582
H          1.86076       -4.36291        2.32827
H          1.77484       -3.31420        4.55287
H          1.71986       -0.86313        4.75500
H          1.75164        0.53642        2.72050
C          2.19918        1.59854        0.35952
C          3.37751        2.25625        0.09015
C          3.54644        3.58355        0.45934
C          2.49248        4.23912        1.09384
C          1.31036        3.58927        1.37264
C          1.16140        2.24141        1.00778
O         -0.01413        1.52459        1.25710
C         -1.20533        2.22303        1.03122
C         -1.37001        3.56383        1.41589
C         -2.57305        4.19283        1.18362
C         -3.63089        3.52491        0.56951
C         -3.44112        2.21083        0.16564
C         -2.24208        1.57248        0.38812
P         -1.91917       -0.11634       -0.15112
C         -1.81570       -1.20284        1.28323
C         -1.70183       -0.68113        2.55111
C         -1.61920       -1.52964        3.63934
C         -1.64235       -2.89708        3.44900
C         -1.74326       -3.41742        2.17412
C         -1.82910       -2.56539        1.08895
H         -1.89407       -2.95319        0.08451
H         -1.74981       -4.48433        2.02329
H         -1.57112       -3.55936        4.29627
H         -1.52593       -1.12319        4.63295
H         -1.65729        0.38724        2.68226
C         -3.36216       -0.53577       -1.14718
C         -3.52336        0.08632       -2.36385
C         -4.64015       -0.18530       -3.13358
C         -5.59197       -1.07364       -2.67432
C         -5.43152       -1.68736       -1.44801
C         -4.31387       -1.41377       -0.68160
H         -4.18549       -1.87589        0.28303
H         -6.17582       -2.37839       -1.08773
H         -6.46156       -1.28820       -3.27385
H         -4.76451        0.29455       -4.09036
H         -2.77080        0.77880       -2.70766
Pd         0.01398       -1.12997       -1.16875
Cl        -1.44738       -1.99877       -2.64436
Cl         1.56012       -2.58766       -1.94484
H         -4.23797        1.68735       -0.33269
C         -4.91717        4.22194        0.30235
H         -4.89726        4.71048       -0.67261
H         -5.11608        4.98366        1.05729
H         -5.75304        3.52115        0.31078
H         -2.69267        5.21960        1.48159
S         -0.02515        4.41965        2.19023
H          2.59980        5.27239        1.37337
C          4.80788        4.30525        0.14338
H          4.17257        1.73642       -0.41498
H          5.03672        5.04928        0.90737
H          5.65209        3.61679        0.08826
H          4.72970        4.81945       -0.81525
