105
-153.06885334
Cl         0.40656        3.18503        2.39211
Pd        -0.15933        1.78990        0.71779
P         -0.75905        0.47903       -1.15812
N          0.39568       -0.77113       -1.59985
C          0.47641       -2.15996       -1.40732
C         -0.04847       -2.83880       -0.27449
C          0.25751       -4.20220       -0.07840
C         -0.12227       -4.86686        1.22431
C          0.73452       -6.09972        1.54465
C          0.75497       -7.05432        0.34710
C          1.33826       -6.36726       -0.89966
C          0.98633       -4.90451       -1.04187
C          1.45942       -4.22735       -2.15894
C          1.23312       -2.88605       -2.32543
H          1.63964       -2.36842       -3.17714
H          2.03834       -4.76839       -2.88840
H          2.43132       -6.45588       -0.88650
H          1.31472       -7.96894        0.58832
H          1.75902       -5.78022        1.77303
H         -0.04979       -4.13380        2.03760
C         -0.72344       -2.08615        0.81072
C          0.05630       -1.18826        1.58072
C         -0.53378       -0.53270        2.66036
C         -1.85053       -0.75087        2.97380
C         -2.63476       -1.63019        2.23430
C         -4.06796       -1.84035        2.67046
C         -4.89835       -2.79971        1.79421
C         -4.02587       -3.89148        1.16461
C         -2.91402       -3.24420        0.33026
C         -2.06999       -2.30310        1.14791
H         -2.29292       -3.99960       -0.16315
H         -4.62683       -4.58379        0.55827
H         -5.38937       -2.23177        0.99460
H         -4.55928       -0.86062        2.72403
H         -2.29500       -0.23247        3.80642
H          0.05562        0.16403        3.22922
N          1.37512       -0.93487        1.20277
P          1.89776        0.73849        1.08035
C          2.73524        1.01060       -0.48087
C          2.43150        2.12887       -1.22138
C          2.93169        2.25933       -2.50299
C          3.73878        1.27208       -3.05017
C          4.04370        0.15624       -2.28260
C          3.54824        0.02871       -0.99747
H          3.76467       -0.84896       -0.40887
H          4.66176       -0.61909       -2.70241
C          4.22643        1.38675       -4.45229
H          2.67745        3.12145       -3.09584
H          1.78685        2.88796       -0.80750
C          2.86653        1.27133        2.48233
C          2.92500        0.46245        3.59126
C          3.65679        0.86262        4.69511
C          4.32735        2.07884        4.69263
C          4.26361        2.87539        3.55664
C          3.53169        2.47307        2.45387
H          3.47031        3.09283        1.57327
H          4.78893        3.81502        3.54200
C          5.13382        2.50350        5.87030
H          3.71097        0.23140        5.56553
H          2.40345       -0.48132        3.58230
H          1.65770       -1.36612        0.32992
H          1.25422       -0.27286       -1.80530
C         -0.63142        1.71062       -2.46015
C         -1.10332        2.98858       -2.28066
C         -0.97413        3.92032       -3.29255
C         -0.37074        3.57754       -4.49510
C          0.07695        2.27504       -4.66953
C         -0.05352        1.34590       -3.65310
H          0.29972        0.33594       -3.78310
H          0.53197        1.99376       -5.60382
C         -0.24522        4.57594       -5.59260
H         -1.34216        4.92252       -3.15378
H         -1.57226        3.24937       -1.34690
C         -2.40745       -0.20157       -1.33845
C         -2.58736       -1.11076       -2.35471
C         -3.85005       -1.61379       -2.61820
C         -4.94246       -1.20361       -1.86568
C         -4.74167       -0.28228       -0.84642
C         -3.48096        0.22263       -0.59323
H         -3.33389        0.97108        0.16519
H         -5.58148        0.04530       -0.25775
C         -6.29282       -1.77746       -2.11841
H         -3.99189       -2.33449       -3.40521
H         -1.73470       -1.42338       -2.93695
Cl        -2.22008        2.69060        0.73215
H          1.01533       -6.89295       -1.80728
H          0.37318       -6.60893        2.44933
H         -0.26945       -7.38592        0.13515
H         -1.17569       -5.16327        1.18661
H         -3.57674       -4.50086        1.95857
H         -3.36662       -2.67576       -0.48600
H         -4.05400       -2.21281        3.70191
H         -5.71735       -3.24633        2.37510
H          5.18133        0.87525       -4.58076
H          3.51093        0.94491       -5.14726
H          4.36904        2.43064       -4.73518
H          5.13085        3.58907        5.97778
H          4.73684        2.07921        6.79354
H          6.16987        2.17780        5.76817
H         -0.13033        5.58526       -5.19497
H          0.62371        4.36634       -6.21803
H         -1.13013        4.56377       -6.23028
H         -6.45427       -1.94579       -3.18406
H         -6.40957       -2.73296       -1.60504
H         -7.07889       -1.10817       -1.76617
