111
-148.54823926
P         -2.45776        2.19388       -0.37635
P         -0.01217        0.39041        0.54668
C         -1.87571        2.26684        1.33834
C         -0.80956        1.48801        1.73320
C         -2.58755        3.89966       -1.08217
C         -1.61250        4.09637       -2.22230
C         -2.48204        3.11429        2.24354
H         -3.29711        3.74171        1.92213
C         -2.03290        3.16170        3.55184
H         -2.50827        3.82070        4.25992
C         -0.97652        2.36564        3.95016
H         -0.62857        2.39910        4.96949
C         -0.36223        1.52725        3.03717
H          0.46184        0.89929        3.33526
Pd        -1.18264        0.58908       -1.44548
Cl        -2.24568        1.13955       -3.34173
Cl         0.10536       -1.00631       -2.35334
C         -4.07387        4.01487       -1.48632
C         -4.20158        1.61348       -0.60183
H         -1.65433        5.11527       -2.61461
H         -0.58564        3.89652       -1.90624
H         -1.84071        3.41893       -3.04598
H         -4.15296        4.57939       -2.42651
H         -4.61944        4.61106       -0.74032
H         -4.14388        0.60161       -1.02612
C         -4.75379        2.62315       -1.62865
C         -4.96370        1.59983        0.70593
H         -2.34980        4.58834       -0.25979
H         -5.84430        2.70887       -1.51276
H         -4.59089        2.24214       -2.64772
H         -5.96627        1.18356        0.58194
H         -4.44272        1.01199        1.46408
H         -5.07716        2.61228        1.09639
C         -1.13860       -3.97474        1.12377
C          0.22714       -3.63232        0.95003
C          0.55265       -2.29569        0.79217
C         -0.40601       -1.32141        0.88247
C         -1.71150       -1.63757        1.15697
C         -2.10458       -2.95553        1.32586
O         -1.54467       -5.33317        1.04234
C          1.34327       -4.68520        0.87268
H          1.56026       -1.99869        0.56025
H         -2.42857       -0.83584        1.20889
C         -3.57216       -3.25744        1.66538
C          4.43465        1.22481       -0.03160
C          3.52446        1.43102       -1.09881
C          2.17938        1.20077       -0.86556
C          1.74002        0.70141        0.33298
C          2.63026        0.39371        1.32944
C          3.98848        0.61663        1.16934
O          5.78407        1.65154       -0.15307
C          3.96632        1.89803       -2.49508
H          1.45199        1.40193       -1.63234
H          2.24758       -0.02929        2.24139
C          4.95539        0.23203        2.30077
C          1.00914       -5.91722        1.73319
C          1.54687       -5.09985       -0.59242
C          2.67154       -4.10837        1.41191
C         -4.38222       -3.35068        0.36313
C         -3.70541       -4.56328        2.46980
C         -4.16822       -2.13153        2.53947
C         -1.88104       -5.75341       -0.27425
H          0.12471       -6.43096        1.36507
H          1.83104       -6.63271        1.72898
H          0.81964       -5.62420        2.76528
H          0.64235       -5.53812       -1.00725
H          1.80617       -4.23600       -1.20411
H          2.34863       -5.83213       -0.68360
H          3.43350       -4.88483        1.47598
H          3.06524       -3.32778        0.76273
H          2.53365       -3.69176        2.40929
H         -4.32193       -2.41695       -0.19578
H         -4.00601       -4.14402       -0.27861
H         -5.43273       -3.55335        0.56979
H         -3.38169       -5.42315        1.88913
H         -3.09646       -4.52159        3.37223
H         -4.73962       -4.73722        2.76591
H         -4.26338       -1.20094        1.98412
H         -5.16539       -2.39853        2.88877
H         -3.54424       -1.94736        3.41361
H         -1.25284       -6.59672       -0.56078
H         -2.92099       -6.07816       -0.30170
H         -1.73730       -4.93563       -0.98173
C          6.00328        3.00320        0.23058
C          3.02326        1.32913       -3.58116
C          3.91834        3.43196       -2.55919
C          5.38292        1.39469       -2.82640
C          5.14892        1.43606        3.23481
C          4.39516       -0.94563        3.12899
C          6.31250       -0.22517        1.73520
H          2.92320        0.24874       -3.48045
H          2.02929        1.77039       -3.52600
H          3.40986        1.53831       -4.57824
H          4.58065        3.87897       -1.82174
H          4.21860        3.79101       -3.54325
H          2.90976        3.79423       -2.36111
H          5.67029        1.67181       -3.84034
H          6.12247        1.81389       -2.14902
H          5.43265        0.30943       -2.74427
H          4.19601        1.75079        3.65971
H          5.82029        1.18878        4.05676
H          5.56988        2.28484        2.70166
H          4.14322       -1.78545        2.48318
H          5.13048       -1.29224        3.85482
H          3.50521       -0.65981        3.68769
H          6.97638       -0.56005        2.53182
H          6.81432        0.58184        1.20700
H          6.17836       -1.04995        1.03605
H          6.37938        3.57020       -0.62069
H          5.07580        3.45318        0.58687
H          6.75292        3.04026        1.02089
