64
-97.21556858
Cl        -1.56822       -1.05970       -2.62759
Cl         1.62047       -1.35067       -2.90311
P          1.93950       -0.65637        0.28346
C          2.13464       -2.32443        1.06391
C          3.72710       -0.25248       -0.02585
P         -1.27371       -0.13375        0.43004
C          1.26694        0.58004        1.45014
C         -0.15659        0.84398        1.50338
C         -0.37538        1.96294        2.40887
C          0.91933        2.40422        2.89704
C          1.93472        1.55986        2.29241
H         -1.34468        2.36345        2.71259
H          1.09723        3.21896        3.60260
Pd         0.18585       -0.93452       -1.23753
H          3.01237        1.63203        2.45275
C         -5.05980        2.05883       -0.87665
C         -4.07829        2.75037       -0.19563
C         -2.92813        2.09691        0.20569
C         -2.75566        0.76081       -0.07790
C         -3.73819        0.06926       -0.74948
C         -4.89203        0.71691       -1.15326
H         -5.95691        2.56628       -1.19203
H         -4.20702        3.79789        0.02261
H         -2.15927        2.63037        0.73526
H         -3.59543       -0.97767       -0.96365
H         -5.65598        0.17428       -1.68549
C         -2.57649       -3.96902        2.48416
C         -2.36742       -2.82559        3.23092
C         -1.97758       -1.65513        2.60458
C         -1.79741       -1.64149        1.24099
C         -2.01188       -2.77467        0.49110
C         -2.40169       -3.94575        1.11405
H         -2.88008       -4.88115        2.97159
H         -2.50642       -2.84423        4.29939
H         -1.80578       -0.75341        3.17090
H         -1.88322       -2.73117       -0.57877
H         -2.57034       -4.83608        0.53084
C          4.10089       -0.34075       -1.48939
H          3.89349        0.76489        0.35173
C          4.46278       -1.29411        0.83994
H          4.64091       -0.88697        1.84609
C          3.64512       -2.60829        0.95302
H          5.45879       -1.49105        0.41704
C          1.63102       -2.29800        2.49067
H          1.55036       -3.03204        0.45977
H          3.97434       -3.19684        1.82146
H          3.84517       -3.23890        0.07460
H          2.18959       -1.56876        3.08088
H          0.57780       -2.01574        2.53508
H          1.73994       -3.27184        2.97386
H          3.89611       -1.34062       -1.87525
H          3.53544        0.36616       -2.09804
H          5.16300       -0.13851       -1.64380
Fe         0.81168        2.47753        0.84871
C         -0.04165        2.68941       -1.04646
C          1.32475        2.21922       -1.13577
C          2.17480        3.18216       -0.46105
C          1.33929        4.27216        0.01521
C         -0.03555        3.94988       -0.32625
H         -0.91058        2.19846       -1.48835
H          1.64858        1.32339       -1.66748
H          3.26378        3.13152       -0.38545
H          1.68197        5.16714        0.53970
H         -0.90644        4.57875       -0.12847
