111
-148.55406796
P         -2.38727        2.38986       -0.10496
P         -0.01311        0.37062        0.47644
C         -1.73635        2.22893        1.57661
C         -0.73984        1.31294        1.83231
C         -2.50933        4.16004       -0.62229
C         -1.75042        4.38075       -1.91267
C         -2.25453        2.98942        2.60525
H         -3.01831        3.71997        2.39420
C         -1.78894        2.81051        3.89645
H         -2.19465        3.40204        4.70088
C         -0.81277        1.86792        4.15617
H         -0.45737        1.72049        5.16274
C         -0.28795        1.11549        3.12080
H          0.46918        0.37012        3.30893
Pd        -1.22113        0.90560       -1.43830
Cl        -2.71444        1.31844       -3.06242
Cl        -0.06044       -0.63471       -2.58949
C         -4.03041        4.39095       -0.74214
C         -4.16385        1.87926       -0.25490
H         -1.80829        5.42177       -2.23978
H         -0.69527        4.11767       -1.80371
H         -2.16278        3.76012       -2.71052
H         -4.22840        5.11992       -1.54140
H         -4.41312        4.85245        0.17998
H         -4.17512        0.96741       -0.86764
C         -4.79721        3.06525       -1.00997
C         -4.79152        1.61302        1.09732
H         -2.07644        4.76123        0.18885
H         -5.85450        3.16261       -0.72319
H         -4.79981        2.85953       -2.09053
H         -4.83355        2.52797        1.68989
H         -5.81417        1.24135        0.99859
H         -4.21675        0.87922        1.66655
C         -1.14935       -4.02694        0.72890
C          0.21376       -3.65579        0.85903
C          0.53885       -2.31260        0.77427
C         -0.43485       -1.35851        0.64244
C         -1.76123       -1.70172        0.61944
C         -2.15560       -3.02776        0.69016
O         -1.50272       -5.39769        0.60999
C          1.33792       -4.68570        1.05373
H          1.56533       -1.99195        0.79600
H         -2.48803       -0.91288        0.52571
C         -3.65550       -3.36111        0.67221
C          4.49621        0.99288        0.06284
C          3.79120        0.19695       -0.87423
C          2.42059        0.07568       -0.72789
C          1.75958        0.63432        0.33414
C          2.45431        1.32435        1.29420
C          3.82664        1.49056        1.20943
O          5.85957        1.32118       -0.16294
C          4.47774       -0.51103       -2.05285
H          1.83568       -0.44491       -1.46449
H          1.90595        1.74729        2.11566
C          4.56567        2.21868        2.34379
C          0.85192       -5.88005        1.89459
C          1.83210       -5.16796       -0.31856
C          2.53159       -4.05771        1.80951
C         -4.11403       -3.55038       -0.78212
C         -3.95323       -4.62604        1.49712
C         -4.47977       -2.21217        1.29577
C         -1.52963       -5.87931       -0.72789
H          0.46575       -5.54086        2.85521
H          0.05750       -6.42392        1.38961
H          1.66348       -6.58221        2.08383
H          2.65155       -5.87819       -0.21117
H          1.03721       -5.65560       -0.87663
H          2.18747       -4.32930       -0.91602
H          3.04005       -3.30599        1.20734
H          2.20119       -3.59033        2.73679
H          3.27125       -4.81685        2.06293
H         -5.17904       -3.77575       -0.82994
H         -3.93353       -2.64580       -1.36268
H         -3.57645       -4.36292       -1.26398
H         -3.59490       -4.50996        2.51942
H         -5.02360       -4.82719        1.53349
H         -3.46886       -5.50134        1.07197
H         -5.52330       -2.50332        1.41356
H         -4.09333       -1.94474        2.27896
H         -4.46667       -1.32479        0.66528
H         -1.24374       -5.08845       -1.42264
H         -0.84245       -6.71936       -0.82738
H         -2.53171       -6.23257       -0.97010
C          6.05158        2.50603       -0.92572
C          4.46745        0.41640       -3.27729
C          5.92147       -0.91141       -1.69922
C          3.72841       -1.81428       -2.41340
C          4.62948        3.72075        2.02917
C          3.82767        2.02866        3.68888
C          5.98625        1.65460        2.52898
H          4.93939       -0.06300       -4.13448
H          3.44586        0.67475       -3.55521
H          4.99940        1.34301       -3.07466
H          6.38374       -1.46949       -2.51308
H          6.54038       -0.03900       -1.50626
H          5.93822       -1.53639       -0.80694
H          3.61072       -2.44601       -1.53381
H          2.74123       -1.61358       -2.82662
H          4.27856       -2.38276       -3.16280
H          5.13836        4.26484        2.82448
H          5.16352        3.90672        1.10057
H          3.62710        4.13520        1.92411
H          2.86910        2.54541        3.69995
H          3.65141        0.97199        3.88869
H          4.41629        2.43102        4.51305
H          5.95213        0.58061        2.70898
H          6.48759        2.12469        3.37464
H          6.59900        1.82570        1.64734
H          6.65745        3.21145       -0.35719
H          6.58218        2.26756       -1.84728
H          5.09112        2.96290       -1.16739
