45
-71.81470037
C          0.38840        0.43369        2.53952
P          0.98032        0.53779        0.81632
P         -1.62765        0.37922       -0.99649
C         -2.41133        0.17759       -2.63044
Cl         1.79120       -2.42291        0.04723
H          0.79583        1.25462        3.12260
H         -2.81433       -0.82689       -2.72311
Cl        -1.16236       -2.70470       -1.55487
C          0.34880        2.02033        0.00330
C         -0.76759        1.95433       -0.80255
C         -1.25223        3.09447       -1.40977
C         -0.60568        4.30298       -1.21824
C          0.51712        4.36753       -0.41600
C          0.99510        3.22339        0.19841
H         -2.13621        3.03506       -2.02374
H         -0.98082        5.19453       -1.69325
H          1.02045        5.30854       -0.26659
H          1.86966        3.25806        0.82833
Pd        -0.01040       -1.16361       -0.40071
H         -1.67652        0.33634       -3.41453
H          0.69808       -0.50840        2.98290
H         -3.21956        0.89364       -2.74836
C         -4.49052       -0.28466        2.46852
C         -4.15815       -1.33449        1.63467
C         -3.29595       -1.12290        0.57474
C         -2.78045        0.13298        0.35323
C         -3.09968        1.18048        1.18598
C         -3.96124        0.97220        2.24788
H         -5.16140       -0.44757        3.29616
H         -4.56301       -2.31721        1.81232
H         -2.99450       -1.93367       -0.06934
H         -2.67128        2.15302        1.00476
H         -4.21713        1.78931        2.90218
C          5.50061        0.31805        0.35705
C          4.93814        0.14003        1.60563
C          3.56533        0.20976        1.76084
C          2.76674        0.45976        0.66813
C          3.32206        0.63437       -0.57896
C          4.69496        0.56466       -0.73685
H          6.57002        0.26091        0.23558
H          5.56706       -0.05700        2.45826
H          3.11541        0.06492        2.72946
H          2.67771        0.82115       -1.42406
H          5.13270        0.69897       -1.71233
H         -0.69613        0.49123        2.56059
