105
-153.05782614
Cl         0.74458        3.77979        1.25711
Pd        -0.03195        2.01065        0.10065
P         -0.74925        0.26712       -1.34346
N          0.09593       -1.16276       -1.96782
C          0.17971       -2.48616       -1.53931
C         -0.14768       -2.95067       -0.23368
C          0.17887       -4.27759        0.12612
C          0.06605       -4.70842        1.57098
C         -0.08338       -6.22642        1.74242
C          1.02530       -6.95807        0.98012
C          0.98440       -6.61443       -0.51856
C          0.68639       -5.16514       -0.82604
C          0.91871       -4.71005       -2.11645
C          0.69316       -3.40223       -2.45739
H          0.92417       -3.06145       -3.45194
H          1.30664       -5.39722       -2.84946
H          1.93670       -6.88463       -0.99252
H          1.99957       -6.66904        1.39412
H         -0.08258       -6.50617        2.80546
H          0.96492       -4.36676        2.09825
C         -0.74583       -2.07327        0.80915
C          0.06254       -1.06301        1.38792
C         -0.41049       -0.35147        2.48958
C         -1.65475       -0.61316        3.00025
C         -2.47884       -1.58356        2.43773
C         -3.82602       -1.82337        3.07882
C         -4.74625       -2.79644        2.32027
C         -3.94953       -3.93559        1.67653
C         -2.90503       -3.36919        0.70544
C         -2.02682       -2.31792        1.33704
H         -2.29120       -4.17597        0.28880
H         -4.61687       -4.64593        1.16822
H         -5.28649       -2.25097        1.53750
H         -4.32671       -0.85523        3.20712
H         -2.01225       -0.05689        3.85017
H          0.20428        0.41727        2.91977
N          1.23932       -0.73321        0.72579
P          1.84028        0.86767        0.92542
C          3.08539        1.21688       -0.31236
C          3.02658        0.57132       -1.52517
C          3.95522        0.86615       -2.50523
C          4.94967        1.80700       -2.27502
C          4.98364        2.45728       -1.04832
C          4.05286        2.16204       -0.06868
H          4.06885        2.67112        0.88189
H          5.74012        3.20154       -0.86697
C          5.93005        2.14694       -3.34305
H          3.90793        0.37204       -3.46078
H          2.23489       -0.13343       -1.72046
C          2.53275        0.98196        2.57561
C          3.17799       -0.12330        3.07681
C          3.72527       -0.08268        4.34728
C          3.62234        1.06404        5.12368
C          2.97337        2.17203        4.59533
C          2.42844        2.12745        3.32668
H          1.91609        2.98002        2.91522
H          2.89775        3.06998        5.18450
C          4.23168        1.11808        6.48146
H          4.23548       -0.94396        4.74340
H          3.24071       -1.01491        2.47245
H          1.10337       -0.86508       -0.27389
H          0.25144       -0.99446       -2.95464
C         -0.75129        1.40076       -2.75033
C         -1.92610        1.72872       -3.38524
C         -1.91471        2.61253       -4.44823
C         -0.72361        3.17250       -4.88869
C          0.45137        2.83897       -4.22989
C          0.43536        1.95494       -3.16728
H          1.34747        1.70832       -2.65306
H          1.37946        3.28129       -4.54970
C         -0.71314        4.14932       -6.01251
H         -2.83528        2.87880       -4.93896
H         -2.85412        1.30465       -3.03996
C         -2.46710       -0.16632       -1.07136
C         -3.03781       -1.05697       -1.94946
C         -4.38201       -1.36760       -1.84084
C         -5.15896       -0.79483       -0.84368
C         -4.56412        0.10295        0.03305
C         -3.22298        0.41756       -0.08308
H         -2.76687        1.12770        0.58664
H         -5.15956        0.56221        0.80338
C         -6.60781       -1.12288       -0.74000
H         -4.83533       -2.05964       -2.52980
H         -2.42757       -1.50137       -2.72009
Cl        -1.87595        3.18854       -0.41729
H          0.22714       -7.23284       -1.01532
H         -1.06046       -6.54064        1.35435
H          0.95139       -8.04385        1.13458
H         -0.76429       -4.19036        2.06229
H         -3.44243       -4.51312        2.45955
H         -3.41228       -2.92480       -0.15644
H         -3.65717       -2.19916        4.09516
H         -5.52430       -3.19594        2.98588
H          6.86451        2.51600       -2.91800
H          6.16612        1.27324       -3.95223
H          5.53163        2.91954       -4.00216
H          3.67799        1.79378        7.13486
H          4.23514        0.13344        6.95107
H          5.26289        1.46994        6.42936
H          0.22958        4.10976       -6.56003
H         -1.51631        3.94297       -6.72130
H         -0.84462        5.16661       -5.64143
H         -6.76812       -2.20093       -0.78948
H         -7.03042       -0.76685        0.20055
H         -7.16815       -0.66131       -1.55416
