105
-153.05968404
Cl         0.56982        3.75425        1.44408
Pd        -0.09548        2.00536        0.19478
P         -0.70627        0.24095       -1.28702
N          0.11779       -1.18423       -1.95090
C          0.19385       -2.51374       -1.54814
C         -0.14640       -2.98944       -0.25232
C          0.16436       -4.32196        0.09729
C         -0.00711       -4.76226        1.53335
C          0.79072       -6.02466        1.89054
C          0.56101       -7.11707        0.84224
C          1.00537       -6.64398       -0.55154
C          0.67825       -5.20168       -0.85794
C          0.93126       -4.73284       -2.14004
C          0.71362       -3.42075       -2.47110
H          0.95814       -3.06959       -3.45873
H          1.33453       -5.41198       -2.87227
H          2.08840       -6.78076       -0.65644
H          1.07985       -8.04373        1.12559
H          1.85936       -5.77934        1.93192
H          0.28163       -3.93521        2.19451
C         -0.73679       -2.11620        0.79745
C          0.08492       -1.12707        1.39753
C         -0.37498       -0.44647        2.52496
C         -1.61871       -0.71353        3.03557
C         -2.46018       -1.65036        2.44208
C         -3.81126       -1.89062        3.07547
C         -4.75948       -2.79984        2.27192
C         -3.99556       -3.92303        1.56294
C         -2.93719       -3.33160        0.62226
C         -2.02316       -2.35211        1.31464
H         -2.35377       -4.12640        0.14373
H         -4.68278       -4.58499        1.01722
H         -5.29245       -2.20146        1.52338
H         -4.28734       -0.91862        3.25696
H         -1.96490       -0.18208        3.90579
H          0.24973        0.30368        2.97385
N          1.25092       -0.76922        0.72690
P          1.79786        0.84907        0.94375
C          2.91813        1.30755       -0.37243
C          3.15712        2.63965       -0.61259
C          3.93708        3.01227       -1.69174
C          4.46721        2.05194       -2.54343
C          4.21697        0.71146       -2.27992
C          3.43781        0.34038       -1.19905
H          3.22261       -0.69790       -1.00475
H          4.62975       -0.03983       -2.93129
C          5.31248        2.45061       -3.70265
H          4.12626        4.05389       -1.88718
H          2.69401        3.37841        0.02271
C          2.57802        0.95729        2.55303
C          3.28432       -0.13382        2.99990
C          3.89440       -0.09601        4.24156
C          3.80328        1.03763        5.03845
C          3.07527        2.12446        4.57275
C          2.46781        2.08294        3.33262
H          1.89768        2.92003        2.96753
H          2.98512        3.00254        5.18920
C          4.43640        1.07022        6.38597
H          4.44257       -0.95034        4.60029
H          3.34243       -1.01372        2.37822
H          1.10768       -0.87713       -0.27620
H          0.34321       -0.98198       -2.91701
C         -0.58162        1.41493       -2.64699
C         -1.69065        1.95083       -3.25662
C         -1.53500        2.86127       -4.28535
C         -0.26817        3.23555       -4.71387
C          0.83910        2.68976       -4.07915
C          0.68055        1.77930       -3.05064
H          1.53876        1.36668       -2.54595
H          1.82652        2.98774       -4.38771
C         -0.10063        4.24082       -5.79945
H         -2.40003        3.29355       -4.75859
H         -2.67311        1.66756       -2.91688
C         -2.44141       -0.17717       -1.12146
C         -3.00354       -0.94897       -2.11026
C         -4.35084       -1.26112       -2.05888
C         -5.14166       -0.80214       -1.01483
C         -4.55454       -0.02529       -0.02479
C         -3.20828        0.28342       -0.07826
H         -2.75250        0.88422        0.69177
H         -5.15758        0.33932        0.78901
C         -6.58887       -1.14890       -0.96266
H         -4.79624       -1.86638       -2.82981
H         -2.38327       -1.30504       -2.91791
Cl        -2.04468        3.04055       -0.22682
H          0.55539       -7.27693       -1.32709
H          0.53017       -6.38440        2.89604
H         -0.50563       -7.37393        0.81737
H         -1.06942       -4.93876        1.73194
H         -3.50446       -4.55707        2.31149
H         -3.43482       -2.81209       -0.20323
H         -3.64808       -2.32320        4.06989
H         -5.54264       -3.21543        2.92151
H          5.20475        1.74608       -4.52859
H          5.03309        3.43813       -4.07266
H          6.36594        2.48185       -3.42140
H          5.33617        0.45397        6.41324
H          4.72310        2.08598        6.66187
H          3.74891        0.69627        7.14588
H          0.82844        4.07772       -6.34747
H         -0.92133        4.18693       -6.51610
H         -0.07692        5.25156       -5.38993
H         -6.72741       -2.23007       -0.91504
H         -7.07240       -0.71176       -0.08794
H         -7.10811       -0.78115       -1.84879
