171
-217.84035630
P         -1.66569        0.70312        0.26355
P          1.49515       -0.26007       -0.27301
C         -0.88282        1.77543       -0.96242
C          0.60468       -0.96013       -1.67368
C         -0.26507        1.32123       -2.12164
C          0.38402        2.25464       -2.95197
C          0.37551        3.59502       -2.60464
C         -0.24098        4.02686       -1.45030
C         -0.86318        3.10881       -0.62673
C          0.74449       -2.28960       -1.98640
C          0.05411       -2.82742       -3.05454
C         -0.78068       -2.02425       -3.80377
C         -0.93946       -0.68066       -3.50424
C         -0.21064       -0.13009       -2.43256
Cl         2.15284        1.10444        2.65730
Cl        -0.94101        0.64549        3.45108
C         -1.85312        0.16201       -4.32377
C          1.10088        1.83492       -4.18755
H         -0.23110        5.07173       -1.18636
H         -1.33193        3.42850        0.29243
H          1.40318       -2.90642       -1.39955
H          0.16454       -3.87133       -3.29876
H          0.87330        4.30244       -3.24635
H         -1.31298       -2.43920       -4.64256
C         -2.95256       -3.50595       -0.82681
C         -3.58764       -2.42147       -1.41787
C         -3.14131       -1.14845       -1.08522
C         -2.10883       -0.97969       -0.19555
C         -1.50598       -2.06577        0.39607
C         -1.92097       -3.35613        0.09260
H         -3.28991       -4.49268       -1.08207
H         -3.60694       -0.27451       -1.50614
H         -0.71536       -1.90988        1.10815
C         -5.53398        2.76778        1.41971
C         -4.77267        2.19106        2.42912
C         -3.58357        1.57048        2.07134
C         -3.18216        1.53016        0.76092
C         -3.94787        2.10386       -0.22438
C         -5.14223        2.74057        0.08632
H         -6.45313        3.25368        1.68805
H         -2.94482        1.12990        2.81369
H         -3.60289        2.06515       -1.24462
C          3.87850       -3.60870        1.69282
C          4.14841       -3.24468        0.38091
C          3.40676       -2.20735       -0.17018
C          2.42224       -1.57894        0.55365
C          2.17464       -1.95777        1.85241
C          2.90895       -2.97042        2.45362
H          4.44160       -4.40953        2.13577
H          3.58924       -1.88798       -1.18025
H          1.40962       -1.45484        2.41252
C          4.43020        2.79964       -1.86756
C          3.67984        3.11947       -0.74329
C          2.80279        2.16077       -0.25501
C          2.66822        0.95039       -0.88618
C          3.39707        0.66174       -2.01426
C          4.30485        1.58227       -2.52526
H          5.14298        3.51593       -2.23201
H          2.22523        2.34722        0.63185
H          3.23547       -0.28062       -2.50764
Pd         0.26610        0.56565        1.56568
C         -5.85748       -3.46768       -1.63752
C         -4.77255       -2.65260       -2.36709
C         -4.29194       -3.42486       -3.60770
C         -5.39977       -1.32184       -2.82577
H         -6.72808       -3.61702       -2.27597
H         -5.48868       -4.44992       -1.34499
H         -6.18512       -2.95047       -0.73586
H         -3.85311       -4.38309       -3.33188
H         -5.11854       -3.61879       -4.29102
H         -3.53802       -2.85387       -4.14704
H         -5.76267       -0.74939       -1.97252
H         -4.67926       -0.71243       -3.36963
H         -6.24635       -1.50023       -3.48861
C         -1.95034       -5.88500        0.41080
C         -1.28865       -4.55430        0.81849
C         -1.46852       -4.36934        2.33665
C          0.20869       -4.63729        0.47891
H         -1.82855       -6.07342       -0.65573
H         -1.49839       -6.72036        0.94558
H         -3.01498       -5.88158        0.64392
H         -2.52452       -4.27827        2.59001
H         -1.06278       -5.21863        2.88561
H         -0.96372       -3.47069        2.68709
H          0.35231       -4.78802       -0.59031
H          0.72601       -3.72440        0.76562
H          0.68405       -5.46798        0.99991
C         -5.37405        3.73784        4.30936
C         -5.25087        2.26248        3.88656
C         -4.26514        1.56228        4.84304
C         -6.62089        1.57015        4.00699
H         -5.69308        3.82066        5.34819
H         -4.41602        4.24755        4.20865
H         -6.10092        4.26719        3.69444
H         -4.61883        1.61776        5.87239
H         -4.15332        0.50847        4.58898
H         -3.28224        2.03152        4.80684
H         -7.36985        2.06247        3.38783
H         -6.55502        0.52981        3.68898
H         -6.97708        1.58660        5.03689
C         -7.25097        4.04023       -0.50335
C         -5.95956        3.39219       -1.03798
C         -6.34403        2.32045       -2.07480
C         -5.10710        4.48283       -1.71348
H         -7.02651        4.82337        0.22058
H         -7.81965        4.49487       -1.31448
H         -7.89242        3.29989       -0.02559
H         -6.92693        1.52639       -1.60862
H         -6.94194        2.75094       -2.87789
H         -5.46012        1.86941       -2.52421
H         -5.66469        4.97780       -2.50837
H         -4.80652        5.23973       -0.98927
H         -4.20243        4.06329       -2.15234
C          6.57113       -3.89781        0.32500
C          5.22542       -3.99173       -0.41773
C          5.40656       -3.39248       -1.82664
C          4.81043       -5.46703       -0.56240
H          7.36112       -4.39829       -0.23470
H          6.86218       -2.85651        0.46210
H          6.51581       -4.36226        1.30871
H          6.18225       -3.92481       -2.37693
H          4.48585       -3.46294       -2.40565
H          5.70182       -2.34489       -1.77056
H          4.71311       -5.94706        0.41077
H          3.85041       -5.54796       -1.07221
H          5.54778       -6.02555       -1.13874
C          1.62709       -2.49391        4.60242
C          2.69106       -3.37627        3.91845
C          4.01448       -3.21709        4.69012
C          2.22858       -4.84257        3.97777
H          1.91759       -1.44362        4.58297
H          0.65864       -2.59131        4.11408
H          1.49825       -2.78144        5.64563
H          4.79140       -3.86410        4.28485
H          4.37068       -2.18875        4.63182
H          3.88559       -3.47080        5.74215
H          2.05771       -5.15671        5.00727
H          1.29886       -4.97506        3.42655
H          2.97230       -5.50971        3.54344
C          5.28397        4.62892        0.45066
C          3.84269        4.48906       -0.07046
C          2.87278        4.65614        1.11657
C          3.54799        5.59889       -1.09646
H          6.00624        4.56427       -0.36233
H          5.42733        5.58694        0.95006
H          5.51220        3.83788        1.16476
H          2.98387        5.64000        1.57187
H          1.83682        4.55669        0.79305
H          3.06570        3.91263        1.88959
H          3.63592        6.58487       -0.64054
H          4.24027        5.55761       -1.93643
H          2.53719        5.49878       -1.49076
C          6.63828        1.01716       -3.21043
C          5.20700        1.25254       -3.72395
C          5.20685        2.41952       -4.73090
C          4.72963       -0.01573       -4.45960
H          7.31298        0.77080       -4.03009
H          7.02483        1.90504       -2.71076
H          6.66038        0.19538       -2.49482
H          5.81507        2.17845       -5.60263
H          4.19712        2.63451       -5.07792
H          5.61253        3.32944       -4.29128
H          5.34685       -0.20933       -5.33680
H          4.79340       -0.89352       -3.81746
H          3.69878        0.09144       -4.79608
H         -2.69461       -0.42121       -4.70001
H          0.55618        2.14629       -5.07998
H         -1.33013        0.58266       -5.18340
H         -2.25935        0.98764       -3.73718
H          1.23108        0.75304       -4.22973
H          2.09241        2.28651       -4.22630
