111
-148.55409095
P         -2.32600        2.35216        0.63370
P          0.05250        0.24663        0.44337
C         -1.35572        1.95347        2.10684
C         -0.35866        1.00602        2.02926
C         -2.40202        4.17209        0.32449
C         -1.52957        4.54909       -0.85319
C         -1.63742        2.56437        3.31164
H         -2.41260        3.31207        3.36004
C         -0.92764        2.20895        4.44568
H         -1.14733        2.68362        5.38803
C          0.05397        1.23931        4.37243
H          0.60023        0.95509        5.25675
C          0.33726        0.63420        3.16101
H          1.09460       -0.13111        3.09009
Pd        -1.52100        1.03419       -1.08096
Cl        -3.24668        1.81067       -2.28676
Cl        -0.68225       -0.41111       -2.58048
C         -3.90609        4.42589        0.11240
C         -4.13104        1.97915        0.83860
H         -0.48521        4.28004       -0.67605
H         -1.85345        4.02688       -1.75567
H         -1.57487        5.62155       -1.05717
H         -4.12258        4.37638       -0.96370
H         -4.16977        5.44926        0.41994
H         -4.42755        1.43676       -0.06896
C         -4.77646        3.37753        0.86135
C         -4.40690        1.14357        2.07163
H         -2.05326        4.65937        1.24439
H         -4.90696        3.69032        1.90634
H         -5.79147        3.33650        0.43793
H         -5.46659        0.89130        2.15396
H         -3.83641        0.21290        2.05925
H         -4.12737        1.68228        2.97800
C         -0.95412       -4.18521        0.64668
C         -1.98531       -3.21120        0.66086
C         -1.62291       -1.87484        0.63126
C         -0.31092       -1.50223        0.49739
C          0.67875       -2.43981        0.36042
C          0.38581       -3.79322        0.39393
O         -1.25510       -5.54367        0.93081
C         -3.47675       -3.57579        0.71757
H         -2.36675       -1.10073        0.71081
H          1.69028       -2.09732        0.23084
C          1.51708       -4.81131        0.18199
C          4.33836        1.14223       -0.86577
C          3.44956        0.46731       -1.73955
C          2.15384        0.24314       -1.30857
C          1.74552        0.59531       -0.04925
C          2.63020        1.16534        0.82964
C          3.94350        1.41554        0.46841
O          5.60776        1.57337       -1.33534
C          3.85601        0.01364       -3.15058
H          1.42485       -0.19266       -1.96723
H          2.27742        1.42831        1.80990
C          4.90905        1.99539        1.51479
C         -3.74291       -4.94253        0.06088
C         -3.93952       -3.59357        2.18197
C         -4.31579       -2.53521       -0.05985
C          2.17195       -5.13163        1.53376
C          0.98869       -6.10278       -0.46899
C          2.59146       -4.23807       -0.76913
C         -1.20227       -5.86527        2.31495
H         -3.24947       -5.74588        0.60203
H         -4.80917       -5.16630        0.03931
H         -3.37271       -4.95367       -0.96372
H         -4.99880       -3.83884        2.25399
H         -3.38350       -4.32801        2.76059
H         -3.78589       -2.61999        2.64688
H         -3.92945       -2.40401       -1.07031
H         -5.35476       -2.85461       -0.13684
H         -4.31641       -1.56477        0.43282
H          2.98803       -5.84366        1.41342
H          2.57616       -4.22826        1.98997
H          1.45172       -5.55964        2.22744
H          1.80259       -6.79429       -0.68539
H          0.28584       -6.61634        0.18236
H          0.47569       -5.87879       -1.40368
H          3.33404       -4.99624       -1.01676
H          2.13719       -3.89847       -1.69932
H          3.12567       -3.40174       -0.32086
H         -0.48259       -6.66787        2.47584
H         -0.90758       -4.99132        2.89726
H         -2.18059       -6.21018        2.64914
C          5.60788        2.88255       -1.89104
C          3.57147        1.14576       -4.14911
C          5.34327       -0.38054       -3.20041
C          3.04773       -1.23237       -3.57827
C          4.51045        1.54043        2.93769
C          6.34774        1.50239        1.27498
C          4.85826        3.52970        1.46036
H          4.13451        2.04212       -3.90074
H          3.84003        0.84924       -5.16267
H          2.51339        1.40669       -4.14289
H          5.98706        0.46930       -2.98847
H          5.55944       -1.15480       -2.46499
H          5.61477       -0.76196       -4.18442
H          3.13143       -2.02061       -2.83155
H          1.99277       -1.00240       -3.71904
H          3.41725       -1.62748       -4.52420
H          3.56877        1.98577        3.25531
H          4.41135        0.45622        2.98459
H          5.26539        1.83894        3.66473
H          6.38429        0.41352        1.27035
H          6.73392        1.85276        0.32112
H          7.02001        1.86117        2.05397
H          5.52501        3.96889        2.20200
H          3.84873        3.88884        1.65913
H          5.15420        3.90005        0.48192
H          6.30760        3.51264       -1.34223
H          5.93345        2.83908       -2.93022
H          4.60904        3.31775       -1.84060
