111
-148.54841003
P         -1.97154        2.60685        0.88393
P         -0.26562       -0.04255        0.50929
C         -1.27762        1.76991        2.33139
C         -0.52778        0.62709        2.16488
C         -1.50176        4.39787        0.96748
C         -0.83713        4.86308       -0.30943
C         -1.42974        2.31785        3.58930
H         -1.99365        3.22846        3.70884
C         -0.83531        1.71198        4.68256
H         -0.95642        2.13781        5.66523
C         -0.07134        0.57397        4.51176
H          0.40600        0.11061        5.35951
C          0.09252        0.03751        3.24737
H          0.72067       -0.82614        3.09377
Pd        -1.41952        1.34372       -0.97375
Cl        -2.37923        2.92869       -2.23415
Cl        -0.56708        0.10585       -2.64188
C         -2.84304        5.09913        1.26415
C         -3.81805        2.75549        0.89518
H         -1.53678        4.81675       -1.14485
H         -0.48951        5.89580       -0.22991
H          0.01800        4.23436       -0.56445
H         -2.83871        6.10334        0.81574
H         -2.95161        5.25978        2.34675
H         -4.17261        2.21330        0.00754
C         -4.05138        4.27260        0.74275
C         -4.42298        2.15927        2.14804
H         -0.80777        4.49407        1.81383
H         -4.97326        4.55777        1.27014
H         -4.22748        4.51732       -0.31510
H         -4.12702        1.11505        2.27363
H         -4.09518        2.70451        3.03409
H         -5.51449        2.20122        2.12436
C         -1.01553       -4.54423        0.24151
C         -1.22755       -3.87647        1.47427
C         -1.00190       -2.51119        1.52961
C         -0.64721       -1.80040        0.41101
C         -0.56970       -2.42884       -0.80483
C         -0.78021       -3.78984       -0.93490
O         -1.00288       -5.96371        0.19433
C         -1.65334       -4.61977        2.75024
H         -1.09881       -1.98439        2.46077
H         -0.34584       -1.82885       -1.66747
C         -0.72291       -4.42333       -2.33413
C          3.96541        1.01062       -0.79058
C          3.53350       -0.33772       -0.88116
C          2.24024       -0.63837       -0.49061
C          1.41953        0.32365        0.03497
C          1.86571        1.60586        0.22430
C          3.15003        1.97387       -0.14182
O          5.19498        1.40809       -1.37996
C          4.42048       -1.46574       -1.43102
H          1.85149       -1.63405       -0.60466
H          1.18625        2.31885        0.65933
C          3.63270        3.40433        0.14448
C         -2.55804       -5.81970        2.41543
C         -0.40160       -5.09544        3.50299
C         -2.46415       -3.68971        3.68126
C         -1.63577       -5.65971       -2.42320
C         -1.21634       -3.42312       -3.40485
C          0.72809       -4.81035       -2.65812
C          0.28519       -6.53640        0.38249
H         -3.42611       -5.49741        1.84137
H         -2.02713       -6.56448        1.82757
H         -2.91309       -6.30817        3.32251
H          0.23375       -4.25025        3.76689
H         -0.67238       -5.61453        4.42206
H          0.18891       -5.77621        2.89461
H         -1.84519       -2.89680        4.09865
H         -3.29438       -3.23163        3.14432
H         -2.87665       -4.24794        4.52143
H         -1.30289       -6.44860       -1.75359
H         -2.65873       -5.40121       -2.15172
H         -1.64561       -6.06787       -3.43353
H         -1.30273       -3.90786       -4.37695
H         -2.19553       -3.02464       -3.14103
H         -0.52871       -2.58755       -3.52553
H          1.37066       -3.93053       -2.65313
H          1.12222       -5.51263       -1.92726
H          0.79853       -5.27230       -3.64250
H          0.25877       -7.22217        1.22924
H          0.56890       -7.10187       -0.50488
H          1.02516       -5.75684        0.56844
C          5.08060        1.80678       -2.74022
C          5.91035       -1.19254       -1.15655
C          4.07935       -2.80904       -0.74533
C          4.17464       -1.60786       -2.94094
C          5.13971        3.42226        0.45866
C          3.33624        4.29844       -1.06886
C          2.90693        3.98969        1.37755
H          6.52931       -2.02497       -1.49043
H          6.25364       -0.30047       -1.67375
H          6.08339       -1.04716       -0.09078
H          3.08511       -3.16131       -1.01435
H          4.78391       -3.58522       -1.04325
H          4.12602       -2.71276        0.33906
H          3.12778       -1.83562       -3.14063
H          4.41710       -0.68785       -3.46771
H          4.78138       -2.40877       -3.36257
H          5.47349        4.42586        0.72102
H          5.36547        2.76018        1.29393
H          5.72616        3.09315       -0.39584
H          3.63425        5.32880       -0.87653
H          3.87000        3.95522       -1.95135
H          2.27260        4.29232       -1.30321
H          3.33795        4.94969        1.66068
H          2.99230        3.31936        2.23246
H          1.85001        4.16047        1.18035
H          4.03455        1.80581       -3.04952
H          5.49668        2.80681       -2.86203
H          5.64634        1.12398       -3.37355
