111
-148.55420542
P         -2.52547        2.11109        0.80506
P          0.12454        0.40085        0.46774
C         -1.44238        1.83363        2.23310
C         -0.26871        1.13019        2.06923
C         -3.29542        3.79395        0.85005
C         -2.64244        4.73482       -0.13874
C         -1.78674        2.31449        3.48026
H         -2.71551        2.84543        3.60953
C         -0.94615        2.09785        4.55862
H         -1.21426        2.47363        5.53255
C          0.23369        1.39901        4.38934
H          0.88688        1.22854        5.22926
C          0.57117        0.90893        3.14065
H          1.47995        0.34614        2.99380
Pd        -1.31577        1.41290       -1.03233
Cl        -2.88737        2.33751       -2.33656
Cl        -0.01529        0.66405       -2.70721
C         -4.78094        3.49479        0.57641
C         -4.04374        1.05312        0.80559
H         -3.09747        5.72746       -0.10569
H         -1.57422        4.84358        0.06333
H         -2.74564        4.36058       -1.15783
H         -4.96345        3.57741       -0.50395
H         -5.41968        4.25957        1.04400
H         -4.12517        0.63819       -0.20808
C         -5.17358        2.06877        1.05928
C         -3.94251       -0.05380        1.83250
H         -3.16662        4.16678        1.87403
H         -5.39125        2.09392        2.13590
H         -6.10488        1.73369        0.57786
H         -4.84834       -0.66415        1.85355
H         -3.09668       -0.71150        1.62088
H         -3.79530        0.35775        2.83277
C         -1.18620       -3.96301        0.34897
C         -1.10727       -3.28979        1.59544
C         -0.68533       -1.97078        1.60348
C         -0.42901       -1.30413        0.43432
C         -0.61779       -1.91746       -0.77557
C         -1.02539       -3.23630       -0.85785
O         -1.39000       -5.36809        0.31019
C         -1.44241       -3.97573        2.92922
H         -0.54569       -1.44426        2.53082
H         -0.43376       -1.34096       -1.66478
C         -1.25139       -3.86018       -2.24347
C          4.48864        0.79409       -0.77695
C          3.89724        1.80107        0.03277
C          2.56267        1.66449        0.38099
C          1.85412        0.54355        0.03555
C          2.45749       -0.48568       -0.63781
C          3.78297       -0.41190       -1.02869
O          5.74403        1.02364       -1.39616
C          4.65618        3.02980        0.56266
H          2.05639        2.44281        0.92677
H          1.87135       -1.35622       -0.87514
C          4.39287       -1.64520       -1.71594
C         -1.97721       -2.94896        3.95383
C         -2.54206       -5.03734        2.74522
C         -0.17186       -4.62210        3.50138
C         -1.71349       -2.78662       -3.25594
C          0.06602       -4.47071       -2.74570
C         -2.35244       -4.93465       -2.19458
C         -0.18805       -6.12789        0.33342
H         -2.32360       -3.44983        4.85756
H         -1.20769       -2.24063        4.25693
H         -2.81589       -2.38952        3.54094
H         -2.82592       -5.47741        3.70085
H         -3.43144       -4.59457        2.29798
H         -2.20989       -5.84470        2.09737
H         -0.37645       -5.10806        4.45504
H          0.22987       -5.37038        2.82244
H          0.60210       -3.87222        3.66354
H         -2.00264       -3.24508       -4.20123
H         -2.57322       -2.23696       -2.87368
H         -0.92171       -2.07260       -3.47741
H          0.42359       -5.24630       -2.07273
H         -0.06026       -4.91350       -3.73330
H          0.84182       -3.70857       -2.81446
H         -3.27850       -4.51680       -1.80113
H         -2.55530       -5.33348       -3.18818
H         -2.06596       -5.76794       -1.55790
H         -0.12752       -6.74434       -0.56331
H          0.67909       -5.46780        0.38037
H         -0.18969       -6.78827        1.20042
C          5.62477        1.65061       -2.66235
C          4.34625        3.21507        2.06500
C          6.18188        2.87568        0.43599
C          4.20039        4.28285       -0.20298
C          5.92967       -1.59235       -1.75640
C          4.00492       -2.91849       -0.93029
C          3.84135       -1.75322       -3.14752
H          4.93181        4.03282        2.48439
H          3.29664        3.44721        2.23719
H          4.58678        2.30962        2.62147
H          6.48980        2.83929       -0.60623
H          6.70137        3.71177        0.90359
H          6.51630        1.95626        0.91525
H          4.70403        5.17325        0.17246
H          4.41961        4.19681       -1.26540
H          3.12670        4.43480       -0.09709
H          6.27992       -0.77249       -2.37889
H          6.33563       -1.44887       -0.75568
H          6.34383       -2.51469       -2.16301
H          2.93199       -3.10171       -0.95620
H          4.49242       -3.79764       -1.35090
H          4.30741       -2.83347        0.11303
H          2.75350       -1.81422       -3.14172
H          4.22542       -2.64200       -3.64744
H          4.11997       -0.88632       -3.74324
H          5.14350        2.62116       -2.55534
H          6.61765        1.78582       -3.09180
H          5.02424        1.03438       -3.32931
