100
-131.97651657
C         -1.49534        3.93669       -1.36500
C         -2.25162        2.68207       -1.44957
C         -0.11096        3.61507       -1.36581
C          0.05947        2.14297       -1.51333
C          1.21844        1.57501       -2.26138
C         -1.33412        1.58460       -1.56157
C         -1.76277        0.20661       -2.02987
C         -0.86456       -0.41422       -3.08127
Cl         1.05915       -0.46833        2.73706
Cl        -1.76648       -1.61341        2.29856
C          3.27801        0.57425       -3.87677
C          2.56458        1.68474       -4.28346
C          2.98190       -0.02626       -2.66157
C          1.56027        2.18067       -3.49047
C          1.96663        0.44727       -1.86460
H         -3.33653        2.60534       -1.54638
H          0.70486        4.34097       -1.39532
H          0.07385       -0.74592       -2.63880
H         -1.32827       -1.28301       -3.55391
H         -0.62771        0.30135       -3.87206
H          4.07338        0.18635       -4.49193
H          2.79661        2.16036       -5.22264
H          3.57809       -0.86098       -2.33133
H          0.99528        3.03819       -3.81315
H         -1.92209        4.94231       -1.33589
P          1.83390       -0.30068       -0.22657
H         -2.76173        0.32774       -2.46376
P         -2.01691       -0.93512       -0.59503
H         -3.05949       -2.77796       -1.78025
C         -1.97142       -3.77008       -0.18982
C         -2.12133       -2.66246       -1.23811
C         -3.21393       -3.91601        0.68949
H         -3.61722        0.68647        0.15883
C         -4.89492       -0.96272       -0.38464
C         -3.59652       -0.40239        0.20200
H         -4.82390       -2.06358       -0.37007
C         -6.08540       -0.55742        0.49057
H          3.53013       -1.96646       -0.62350
H          2.76656        0.51531        1.85237
C          3.63783        3.10597        1.43283
C          2.73994        2.22716        0.54310
C          2.98978        0.73624        0.80325
C          4.46603        0.39823        0.54516
C          5.39511        1.27062        1.41529
C          5.12281        2.77164        1.19461
H          3.38771        2.92940        2.48627
H          3.43963        4.17254        1.25675
H          2.96071        2.43980       -0.51024
H          1.67856        2.46937        0.66893
H          4.65659       -0.66784        0.72388
H          4.68718        0.56534       -0.51568
H          5.23480        1.02506        2.47249
H          6.44941        1.03265        1.21605
H          5.39491        3.04212        0.16657
H          5.76834        3.38429        1.83977
C          2.25953       -4.32645       -1.34538
C          1.69830       -2.89270       -1.26289
C          2.49643       -2.04104       -0.26769
C          2.51813       -2.70129        1.11976
C          3.09005       -4.13018        1.04605
C          2.28965       -4.98698        0.04631
H          3.27769       -4.29244       -1.75256
H          1.68088       -4.93287       -2.05597
H          0.65463       -2.92377       -0.93401
H          1.68045       -2.41664       -2.25266
H          3.07613       -2.08150        1.83434
H          1.49648       -2.74641        1.51309
H          4.13929       -4.08500        0.72897
H          3.10266       -4.59724        2.04079
H          1.26269       -5.10578        0.41391
H          2.69969       -6.00510       -0.01267
H         -1.12357       -3.49429        0.46277
C         -1.63958       -5.10696       -0.86064
H         -3.53403       -0.66316        1.25833
C         -5.12499       -0.53133       -1.83351
H         -1.32784       -2.75946       -1.97953
H         -3.44897       -2.99072        1.21396
H         -3.07687       -4.69331        1.44285
H         -4.08137       -4.19341        0.09013
H         -2.45619       -5.42172       -1.51112
H         -0.74106       -5.03794       -1.47495
H         -1.48216       -5.89640       -0.12405
H         -5.95712       -0.89229        1.52120
H         -6.19507        0.52740        0.50934
H         -7.02050       -0.97668        0.11590
H         -6.09546       -0.87277       -2.19756
H         -5.10923        0.55549       -1.92058
H         -4.36862       -0.93729       -2.50523
Fe        -1.04468        2.68939        0.19715
C         -1.72028        1.82139        1.94913
C         -2.57402        2.92500        1.56171
C         -1.74772        4.11658        1.48446
C         -0.38333        3.74381        1.81295
C         -0.37280        2.32686        2.11587
H         -2.03061        0.79557        2.15423
H         -3.65347        2.87897        1.39954
H         -2.09790        5.12525        1.25211
H          0.47131        4.42203        1.87508
H          0.47894        1.73945        2.46029
Pd        -0.19499       -0.80356        0.87557
