171
-217.83896324
P         -1.48209        0.26709       -0.34757
P          1.71734       -0.63197       -0.09975
C         -0.72281        0.98248       -1.80878
C          0.99710       -1.73580       -1.33697
C          0.03908        0.17989       -2.64889
C          0.64725        0.76352       -3.77787
C          0.43493        2.10675       -4.04150
C         -0.33688        2.88241       -3.20302
C         -0.90814        2.31614       -2.08050
C          1.16958       -3.08479       -1.13140
C          0.54184       -4.00674       -1.94488
C         -0.28337       -3.56792       -2.95648
C         -0.47783       -2.21622       -3.18167
C          0.19294       -1.27513       -2.37688
Cl         1.29482       -0.47260        3.15298
Cl        -1.78143       -1.12277        2.71074
C         -1.40624       -1.79573       -4.26620
C          1.49125       -0.04597       -4.69961
H         -0.49514        3.92495       -3.42507
H         -1.50131        2.91906       -1.41350
H          1.79978       -3.42491       -0.32705
H          0.68424       -5.06214       -1.77858
H          0.87937        2.54452       -4.91911
H         -0.79116       -4.27963       -3.58552
C         -4.34340       -3.01442       -1.60471
C         -3.36094       -3.29706       -0.66405
C         -2.51614       -2.26535       -0.27814
C         -2.63856       -1.01530       -0.83116
C         -3.59835       -0.76061       -1.78024
C         -4.48880       -1.75312       -2.17154
H         -5.01210       -3.80260       -1.89515
H         -1.75071       -2.43332        0.45802
H         -3.64258        0.21286       -2.23663
C         -3.72893        3.53331        1.91781
C         -4.08780        3.22822        0.61119
C         -3.39507        2.21028       -0.03216
C         -2.35319        1.55999        0.58398
C         -2.00185        1.90056        1.86991
C         -2.69358        2.87879        2.57001
H         -4.27543        4.28680        2.45290
H         -3.67173        1.92506       -1.03139
H         -1.18946        1.38937        2.34928
C          5.09402       -2.63211        2.18144
C          3.79846       -3.10826        2.34323
C          2.78495       -2.48255        1.63116
C          3.05890       -1.42956        0.79438
C          4.34450       -0.96842        0.65183
C          5.39163       -1.56345        1.34451
H          5.89610       -3.09337        2.72628
H          1.76237       -2.79568        1.76259
H          4.52324       -0.12814        0.00593
C          2.99099        3.49471       -1.44056
C          2.02334        3.38798       -0.44971
C          1.64430        2.11280       -0.04983
C          2.19423        1.00515       -0.65025
C          3.13764        1.12854       -1.64037
C          3.56614        2.38585       -2.04813
H          3.31794        4.47352       -1.73952
H          0.91284        1.97461        0.72659
H          3.53716        0.23407       -2.08761
Pd        -0.08269       -0.53337        1.36513
C         -3.03105       -5.72618       -1.20374
C         -3.24038       -4.70694       -0.06887
C         -4.53050       -5.04140        0.70064
C         -2.04771       -4.81241        0.90373
H         -3.87213       -5.72945       -1.89584
H         -2.13158       -5.48993       -1.77098
H         -2.92308       -6.73526       -0.80640
H         -4.70026       -4.31774        1.49768
H         -5.39859       -5.02410        0.04263
H         -4.47120       -6.03230        1.15048
H         -1.96195       -5.82270        1.30327
H         -1.10988       -4.57547        0.40184
H         -2.16794       -4.13430        1.74835
C         -4.96437       -1.08046       -4.54785
C         -5.59482       -1.42267       -3.18640
C         -6.40248       -0.21252       -2.67983
C         -6.56381       -2.60536       -3.37768
H         -4.42499       -1.93674       -4.95068
H         -5.72989       -0.79927       -5.27089
H         -4.26553       -0.24905       -4.46149
H         -6.81096       -0.40924       -1.68877
H         -5.77945        0.67852       -2.61814
H         -7.23277        0.01135       -3.34941
H         -6.04718       -3.47629       -3.78048
H         -7.03090       -2.88501       -2.43349
H         -7.35911       -2.34440       -4.07584
C         -4.79592        4.35388       -1.52553
C         -5.24388        3.93480       -0.11073
C         -5.69419        5.20171        0.64293
C         -6.43384        2.96539       -0.20884
H         -3.91050        4.98761       -1.47685
H         -4.55728        3.48987       -2.14415
H         -5.58246        4.91210       -2.03303
H         -6.46905        5.72813        0.08568
H         -6.10782        4.95501        1.62034
H         -4.85991        5.88892        0.78337
H         -7.27166        3.42412       -0.73359
H         -6.15446        2.05958       -0.74452
H         -6.77462        2.67176        0.78382
C         -3.61682        2.81809        4.89398
C         -2.38935        3.19216        4.04323
C         -2.08433        4.69218        4.20691
C         -1.17815        2.38883        4.56006
H         -3.85623        1.76126        4.77721
H         -3.43249        3.00830        5.95112
H         -4.49280        3.39417        4.59793
H         -1.86957        4.93353        5.24781
H         -1.21791        4.97765        3.61240
H         -2.92595        5.30702        3.89070
H         -0.96974        2.63092        5.60192
H         -1.36421        1.31643        4.50417
H         -0.28080        2.61298        3.98445
C          4.69501       -4.86505        3.95246
C          3.44087       -4.25643        3.29693
C          2.71328       -5.36472        2.51210
C          2.51806       -3.71654        4.40560
H          4.42484       -5.68928        4.61249
H          5.38012       -5.25493        3.19982
H          5.22371       -4.12415        4.55179
H          1.78137       -5.00071        2.08097
H          3.33736       -5.73310        1.69814
H          2.47152       -6.20682        3.16030
H          3.00887       -2.91559        4.95786
H          1.59467       -3.31429        3.99034
H          2.25295       -4.50289        5.11193
C          6.95109        0.11977        0.24145
C          6.83863       -1.06390        1.22288
C          7.73154       -2.20813        0.70897
C          7.33207       -0.59858        2.60507
H          6.34732        0.96437        0.57309
H          7.98278        0.46270        0.16451
H          6.62468       -0.16869       -0.75719
H          8.76312       -1.87596        0.59339
H          7.72903       -3.05289        1.39674
H          7.38089       -2.56399       -0.25965
H          6.69535        0.19662        2.99239
H          7.32161       -1.41580        3.32527
H          8.35157       -0.21759        2.54767
C          2.56172        5.36666        0.98340
C          1.44708        4.65632        0.19542
C          0.29318        4.32852        1.16035
C          0.90176        5.59720       -0.89542
H          2.96423        4.71095        1.75534
H          3.38314        5.65591        0.32864
H          2.18498        6.26749        1.46754
H          0.63743        3.71342        1.99085
H         -0.12933        5.24219        1.57706
H         -0.50816        3.79990        0.64587
H          0.48338        6.50186       -0.45450
H          1.68245        5.89904       -1.59210
H          0.11286        5.10801       -1.46469
C          4.10653        3.39856       -4.28031
C          4.66428        2.57776       -3.10360
C          5.17582        1.22912       -3.64624
C          5.85105        3.32423       -2.46614
H          3.76542        4.38011       -3.95353
H          4.86688        3.54768       -5.04675
H          3.26204        2.88709       -4.73981
H          4.37269        0.66362       -4.11649
H          5.95270        1.38309       -4.39501
H          5.60271        0.62177       -2.84892
H          6.65986        3.45699       -3.18447
H          5.55465        4.31084       -2.11200
H          6.24328        2.76749       -1.61529
H         -0.96269       -1.96190       -5.24878
H          2.25202        0.57018       -5.18042
H         -1.66769       -0.74001       -4.18456
H         -2.33179       -2.37018       -4.21635
H          0.88670       -0.49808       -5.48650
H          2.00337       -0.84667       -4.16376
