111
-148.55699415
P         -1.52957        2.71269        0.98461
P         -0.54217       -0.24247        0.42439
C         -1.29302        1.56571        2.36762
C         -0.93248        0.25823        2.11734
C         -0.31784        4.10716        1.05240
C          0.65497        4.02755       -0.10495
C         -1.45032        2.00161        3.66748
H         -1.69839        3.03350        3.85569
C         -1.26835        1.11776        4.71698
H         -1.39428        1.45625        5.73247
C         -0.92103       -0.19546        4.46443
H         -0.77508       -0.88272        5.28151
C         -0.74370       -0.62367        3.16125
H         -0.44431       -1.63775        2.95111
Pd        -1.60558        1.36575       -0.87513
Cl        -2.23424        3.07681       -2.17851
Cl        -1.57377       -0.10350       -2.57850
C         -1.21527        5.36105        1.03607
C         -3.11968        3.65757        1.05543
H          0.12215        4.05325       -1.05760
H          1.35920        4.86271       -0.09452
H          1.23132        3.10092       -0.07932
H         -1.25336        5.75159        0.00988
H         -0.76333        6.16336        1.63864
H         -3.47848        3.70780        0.01851
C         -2.66075        5.05127        1.52013
C         -4.15417        2.99443        1.93961
H          0.20175        4.01338        2.01491
H         -2.69946        5.09095        2.61741
H         -3.36588        5.82166        1.17219
H         -3.80744        2.93117        2.97147
H         -5.09198        3.55458        1.94367
H         -4.36835        1.97734        1.60339
C         -0.69354       -4.76240       -0.11118
C         -1.69452       -3.95669       -0.71247
C         -1.64651       -2.58756       -0.50757
C         -0.61438       -2.01390        0.18676
C          0.41687       -2.77666        0.67054
C          0.42517       -4.15249        0.51130
O         -0.82449       -6.17676       -0.10658
C         -2.82167       -4.54468       -1.57650
H         -2.41045       -1.94294       -0.90558
H          1.22430       -2.27545        1.17690
C          1.62575       -4.95928        1.03019
C          3.63543        1.28906       -0.55928
C          3.18950        1.27435        0.78929
C          1.93138        0.76256        1.05786
C          1.10912        0.34231        0.04584
C          1.48863        0.46496       -1.26445
C          2.72554        0.98223       -1.60611
O          5.00110        1.53273       -0.85506
C          4.01308        1.81206        1.97105
H          1.57842        0.68788        2.07186
H          0.78327        0.17746       -2.02552
C          3.00610        1.24160       -3.09559
C         -4.02939       -4.87263       -0.68607
C         -3.26383       -3.53038       -2.65644
C         -2.35001       -5.80895       -2.31792
C          1.36358       -5.38279        2.48331
C          1.87904       -6.19920        0.15361
C          2.91557       -4.10752        0.99007
C         -1.54307       -6.68895        1.00843
H         -3.76918       -5.60028        0.07892
H         -4.39091       -3.97671       -0.18194
H         -4.84913       -5.28238       -1.27564
H         -2.40667       -3.17308       -3.22655
H         -3.96360       -3.98833       -3.35502
H         -3.76642       -2.66878       -2.21990
H         -2.09692       -6.60563       -1.62287
H         -3.12653       -6.18635       -2.98279
H         -1.46535       -5.59454       -2.91657
H          2.20456       -5.94899        2.88288
H          1.21210       -4.50973        3.11773
H          0.47446       -6.00419        2.55822
H          1.04238       -6.89223        0.19597
H          2.02140       -5.91044       -0.88722
H          2.76862       -6.73628        0.48174
H          3.78769       -4.71468        1.23171
H          3.06867       -3.68167       -0.00130
H          2.88416       -3.29305        1.71240
H         -1.85376       -5.87684        1.66694
H         -2.42184       -7.23116        0.65984
H         -0.91166       -7.38425        1.56136
C          5.77173        0.34345       -0.89238
C          3.12061        2.71294        2.85364
C          4.52627        0.63056        2.81034
C          5.20326        2.67220        1.51244
C          3.21062       -0.09969       -3.81817
C          1.79867        1.97676       -3.72074
C          4.23870        2.13612       -3.31185
H          2.69631        3.52602        2.26575
H          2.29939        2.15767        3.30363
H          3.69759        3.15341        3.66632
H          5.09892        0.98158        3.66840
H          3.69788        0.02858        3.18280
H          5.16982       -0.01926        2.21996
H          5.71595        3.11967        2.36359
H          5.93111        2.07763        0.96533
H          4.86703        3.47485        0.85695
H          2.33229       -0.73593       -3.71376
H          3.38875        0.05436       -4.88207
H          4.06285       -0.63964       -3.40949
H          0.89934        1.36341       -3.71073
H          1.58377        2.89567       -3.17618
H          1.99905        2.24059       -4.75868
H          4.14143        3.06572       -2.75207
H          4.36400        2.38461       -4.36544
H          5.14807        1.64072       -2.97987
H          5.74123       -0.15115        0.07740
H          5.37453       -0.33537       -1.64563
H          6.80442        0.59153       -1.13842
