59
-75.80345620
Cl         1.66474        0.24887        2.42273
P          1.64898       -0.33056       -0.78047
P         -1.50731        0.08528       -0.81830
C          0.68722       -0.77796       -2.29302
H          1.33844       -0.66412       -3.16472
H          0.45780       -1.84274       -2.21391
C         -0.57355        0.03423       -2.41557
H         -1.23501       -0.34309       -3.20066
H         -0.34371        1.06772       -2.68277
C          2.96922       -1.62395       -0.54744
H          2.83832       -2.32757       -1.37866
C          2.73895        1.15674       -0.99573
H          2.82646        1.60425        0.00240
C         -2.86329       -1.17608       -0.70620
H         -2.96870       -1.40203        0.36235
C         -2.54854        1.62786       -0.80545
H         -2.33703        2.13706       -1.75353
C          4.28884       -0.84227       -0.70592
H          4.71953       -0.67452        0.29069
H          5.03163       -1.44835       -1.24594
C          4.07944        0.52563       -1.40431
H          4.08876        0.39036       -2.49504
H          4.91014        1.21388       -1.18381
C         -4.08782       -0.38651       -1.19793
H         -4.14140       -0.46414       -2.29298
H         -5.01544       -0.84589       -0.82274
C         -3.99832        1.10564       -0.78359
H         -4.39905        1.22034        0.23262
H         -4.64137        1.72863       -1.42301
C          2.88443       -2.36883        0.78233
H          2.91909       -1.63714        1.59909
H          3.79274       -2.97555        0.90338
C          2.22183        2.19892       -1.98273
H          3.04793        2.86668       -2.26407
H          1.93192        1.69636       -2.91384
C         -2.60458       -2.46412       -1.48199
H         -3.54968       -3.01540       -1.58422
H         -2.30826       -2.21262       -2.50775
C         -2.21999        2.54757        0.36715
H         -2.49291        2.03935        1.30051
H         -1.13457        2.69217        0.43424
C          1.65691       -3.25335        0.92108
H          1.58511       -3.96396        0.09555
H          0.74139       -2.66291        0.92628
H          1.67070       -3.82822        1.84993
C          1.06965        3.01732       -1.42588
H          0.25089        2.37168       -1.11293
H          0.67340        3.72593       -2.15676
H          1.37724        3.58706       -0.54682
C         -1.56213       -3.35126       -0.82454
H         -1.87814       -3.66001        0.17386
H         -0.61802       -2.82199       -0.70886
H         -1.36524       -4.25654       -1.40338
C         -2.92050        3.89479        0.27911
H         -4.00547        3.77770        0.25897
H         -2.67591        4.53970        1.12621
H         -2.63739        4.42666       -0.63126
Cl        -1.62199        0.10025        2.35073
Pd         0.06641       -0.02998        0.87849
