171
-217.83514960
P         -1.46958        0.18233       -0.28484
P          1.69555       -0.66766        0.30813
C         -0.56968        0.88252       -1.68605
C          0.97157       -1.80023       -0.90022
C          0.25467        0.04180       -2.42377
C          0.99022        0.57190       -3.50136
C          0.82717        1.90658       -3.83333
C         -0.00830        2.72366       -3.10126
C         -0.69780        2.20886       -2.02128
C          1.01168       -3.12609       -0.53837
C          0.43297       -4.08667       -1.34493
C         -0.20342       -3.70530       -2.50642
C         -0.26850       -2.37410       -2.88180
C          0.33955       -1.39770       -2.07051
Cl         0.92346       -0.67959        3.48908
Cl        -2.11469       -1.31891        2.64734
C         -0.99669       -2.01099       -4.12839
C          1.92262       -0.28047       -4.28940
H         -0.11678        3.76226       -3.36768
H         -1.32644        2.85144       -1.43009
H          1.49231       -3.40609        0.38756
H          0.47159       -5.12581       -1.06173
H          1.36311        2.30464       -4.67803
H         -0.67010       -4.44673       -3.13299
C         -4.44506       -2.81441       -1.93140
C         -3.75599       -3.13787       -0.76848
C         -2.85347       -2.20983       -0.27010
C         -2.64034       -1.02064       -0.91811
C         -3.31866       -0.72268       -2.07471
C         -4.24158       -1.61648       -2.60579
H         -5.17426       -3.50144       -2.31674
H         -2.33164       -2.40558        0.64898
H         -3.11158        0.21076       -2.56841
C         -4.02039        3.44066        1.63501
C         -4.08436        3.22644        0.26456
C         -3.29919        2.21459       -0.27410
C         -2.45483        1.47504        0.51865
C         -2.42064        1.69898        1.87514
C         -3.20940        2.67639        2.46392
H         -4.62702        4.21757        2.06080
H         -3.34490        1.99524       -1.32606
H         -1.79900        1.08823        2.50210
C          5.69067       -2.45193        1.48767
C          4.86806       -1.96955        2.49799
C          3.63762       -1.44055        2.13350
C          3.25384       -1.40553        0.81755
C          4.07634       -1.89456       -0.16818
C          5.31986       -2.42689        0.14917
H          6.64900       -2.86038        1.75126
H          2.95618       -1.06392        2.87317
H          3.73435       -1.86147       -1.18885
C          2.77259        3.57947       -0.85522
C          1.70210        3.39520        0.01087
C          1.36492        2.09253        0.36014
C          2.06054        1.02932       -0.16801
C          3.11631        1.23403       -1.02199
C          3.50092        2.51985       -1.37850
H          3.05983        4.58116       -1.11692
H          0.55294        1.90044        1.03779
H          3.64973        0.37899       -1.39760
Pd        -0.25871       -0.63718        1.58516
C         -4.99210       -5.36298       -0.71649
C         -3.97029       -4.45366       -0.00799
C         -4.48932       -4.14007        1.40774
C         -2.63040       -5.20667        0.08735
H         -5.96753       -4.88132       -0.78166
H         -4.66093       -5.61334       -1.72423
H         -5.12224       -6.29706       -0.17009
H         -5.42527       -3.58401        1.35993
H         -4.66807       -5.05625        1.97007
H         -3.77345       -3.53973        1.96793
H         -2.75032       -6.15256        0.61505
H         -2.23989       -5.42168       -0.90694
H         -1.88337       -4.62011        0.62093
C         -5.07525       -2.45417       -4.83739
C         -5.07990       -1.27359       -3.84654
C         -4.52889       -0.03256       -4.57737
C         -6.52311       -0.98264       -3.39919
H         -5.52701       -3.34485       -4.40332
H         -5.63900       -2.20678       -5.73679
H         -4.05918       -2.70492       -5.13913
H         -4.58877        0.85576       -3.94950
H         -3.48942       -0.17932       -4.86930
H         -5.10225        0.16964       -5.48197
H         -7.15298       -0.72638       -4.25088
H         -6.96122       -1.84917       -2.90465
H         -6.54774       -0.14945       -2.69687
C         -4.48667        5.56295       -0.53522
C         -4.98642        4.10880       -0.60946
C         -6.43680        4.02701       -0.09837
C         -4.96686        3.65819       -2.08379
H         -4.52398        5.94134        0.48576
H         -3.45479        5.63274       -0.87959
H         -5.09617        6.21793       -1.15755
H         -7.10364        4.62280       -0.72144
H         -6.79172        2.99664       -0.11351
H         -6.52061        4.39522        0.92328
H         -5.61994        4.28663       -2.68912
H         -3.96344        3.72730       -2.50369
H         -5.31440        2.62997       -2.18253
C         -3.70640        1.50524        4.61814
C         -3.20659        2.82182        3.99353
C         -4.12651        3.96670        4.45841
C         -1.77885        3.11402        4.49056
H         -3.05452        0.67209        4.35781
H         -3.73966        1.57573        5.70507
H         -4.70876        1.26711        4.26318
H         -4.10732        4.06123        5.54408
H         -3.80763        4.92041        4.03811
H         -5.15955        3.78538        4.16235
H         -1.41107        4.05208        4.07681
H         -1.75580        3.19760        5.57690
H         -1.08746        2.32193        4.20563
C          5.58584       -3.50069        4.34964
C          5.33101       -2.03294        3.96048
C          4.27115       -1.45206        4.91750
C          6.62866       -1.21949        4.11852
H          6.36742       -3.94416        3.73389
H          5.89693       -3.57983        5.39116
H          4.68118       -4.09474        4.22131
H          4.06793       -0.40592        4.68987
H          3.33562       -2.00698        4.85084
H          4.61250       -1.50429        5.95117
H          6.97171       -1.22926        5.15295
H          7.42795       -1.62396        3.49864
H          6.47002       -0.18196        3.82500
C          6.56804       -4.45027       -0.64831
C          6.27518       -2.96444       -0.92537
C          7.58665       -2.15857       -0.88720
C          5.66869       -2.84147       -2.33761
H          5.64543       -5.03048       -0.64950
H          7.22947       -4.86590       -1.40831
H          7.04721       -4.58584        0.32056
H          8.08274       -2.25488        0.07785
H          8.27946       -2.50413       -1.65428
H          7.39294       -1.09999       -1.05937
H          4.74153       -3.40883       -2.41746
H          5.45989       -1.80117       -2.58632
H          6.35714       -3.22755       -3.08919
C          1.95108        5.40069        1.48634
C          0.97615        4.62034        0.58659
C         -0.24528        4.21139        1.42675
C          0.48700        5.52828       -0.55781
H          1.46525        6.27170        1.92581
H          2.31314        4.77003        2.29814
H          2.81566        5.74830        0.92179
H          0.05299        3.59119        2.27086
H         -0.75723        5.08851        1.82222
H         -0.96199        3.65613        0.82434
H          1.31583        5.88927       -1.16503
H         -0.19884        4.99079       -1.21089
H         -0.03949        6.39802       -0.16505
C          5.72927        3.65936       -1.52356
C          4.71111        2.78927       -2.28409
C          4.24721        3.52410       -3.55376
C          5.41055        1.48018       -2.70130
H          6.04684        3.16516       -0.60553
H          6.61498        3.84442       -2.13110
H          5.30340        4.62502       -1.25392
H          5.09067        3.74152       -4.20882
H          3.53748        2.91532       -4.11169
H          3.76060        4.46778       -3.30994
H          6.27156        1.68647       -3.33687
H          5.76765        0.93248       -1.82934
H          4.73533        0.83466       -3.26172
H         -0.44924       -2.34364       -5.01145
H          2.77688        0.29725       -4.64522
H         -1.14518       -0.93366       -4.20820
H         -1.98029       -2.48110       -4.14696
H          1.42168       -0.70526       -5.16015
H          2.31001       -1.10322       -3.68633
