171
-217.83423012
P         -1.78175        0.64776       -0.15012
P          1.44517       -0.27597       -0.41965
C         -1.11419        1.65251       -1.49591
C          0.61816       -1.10053       -1.78200
C         -0.30646        1.11667       -2.49653
C          0.34632        1.99593       -3.38243
C          0.12610        3.35823       -3.27596
C         -0.71294        3.86803       -2.30982
C         -1.31886        3.01027       -1.41388
C          0.77643       -2.45426       -1.95143
C          0.15578       -3.09989       -3.00273
C         -0.62997       -2.38092       -3.87829
C         -0.80616       -1.01560       -3.72235
C         -0.15979       -0.35578       -2.65932
Cl         1.87455        1.40479        2.38599
Cl        -1.18278        0.68252        3.10576
C         -1.65428       -0.25445       -4.68150
C          1.28919        1.50331       -4.42306
H         -0.87949        4.93066       -2.23993
H         -1.95655        3.40806       -0.64240
H          1.38742       -3.01030       -1.26030
H          0.28814       -4.16025       -3.14189
H          0.62395        4.02216       -3.96267
H         -1.11350       -2.88204       -4.69959
C         -3.09406       -3.60036       -1.00006
C         -2.06693       -3.38478       -0.09044
C         -1.68059       -2.07264        0.15242
C         -2.28349       -1.03440       -0.51777
C         -3.28934       -1.26691       -1.42373
C         -3.72392       -2.56240       -1.67630
H         -3.41634       -4.60986       -1.17163
H         -0.90228       -1.85252        0.86144
H         -3.74299       -0.43061       -1.92910
C         -4.88948        2.86418        2.30529
C         -3.58618        3.34384        2.27109
C         -2.66306        2.65170        1.50059
C         -3.03007        1.53172        0.79651
C         -4.32224        1.06907        0.84479
C         -5.28149        1.73107        1.60266
H         -5.62112        3.37297        2.90425
H         -1.63312        2.96800        1.48397
H         -4.57132        0.17680        0.29895
C          3.70188       -3.34757        2.09544
C          4.02107       -3.18334        0.75367
C          3.32340       -2.22260        0.03246
C          2.31353       -1.49314        0.61203
C          2.00283       -1.69253        1.93762
C          2.70140       -2.60864        2.71101
H          4.25398       -4.05358        2.68660
H          3.57470       -2.04100       -0.99734
H          1.21822       -1.11720        2.38987
C          4.43322        2.68549       -2.10689
C          3.55646        3.10465       -1.11267
C          2.66357        2.17461       -0.59998
C          2.63984        0.88837       -1.07510
C          3.50049        0.49488       -2.07082
C          4.43033        1.38374       -2.59679
H          5.13875        3.38875       -2.50505
H          1.98625        2.45508        0.18746
H          3.43666       -0.50863       -2.45508
Pd         0.08294        0.68226        1.24193
C         -0.22879       -4.14715        1.49422
C         -1.43466       -4.57797        0.64069
C         -0.94431       -5.61953       -0.38285
C         -2.48855       -5.21412        1.56415
H          0.23127       -5.01106        1.97274
H          0.53214       -3.66772        0.88034
H         -0.52967       -3.45376        2.27858
H         -1.76258       -5.99923       -0.99293
H         -0.20188       -5.18290       -1.04914
H         -0.48333       -6.47011        0.11904
H         -2.06990       -6.05858        2.11137
H         -2.85178       -4.48717        2.29043
H         -3.34470       -5.57443        0.99471
C         -6.13702       -2.06312       -2.13691
C         -4.88853       -2.80344       -2.64901
C         -5.22712       -4.30154       -2.77557
C         -4.51322       -2.27236       -4.04246
H         -6.40124       -2.40113       -1.13513
H         -5.96631       -0.98819       -2.09708
H         -6.99166       -2.23989       -2.78971
H         -4.37378       -4.86600       -3.15122
H         -5.52459       -4.71955       -1.81401
H         -6.05349       -4.45352       -3.46986
H         -5.31729       -2.44760       -4.75703
H         -4.32112       -1.20083       -4.01519
H         -3.61826       -2.77030       -4.41366
C         -2.49510        5.59873        2.12313
C         -3.12005        4.56353        3.07769
C         -2.06935        4.10932        4.10837
C         -4.28819        5.23233        3.82676
H         -1.62095        5.19386        1.61443
H         -3.21356        5.90397        1.36262
H         -2.17934        6.48915        2.66644
H         -1.72385        4.94865        4.71141
H         -2.48806        3.35919        4.77875
H         -1.20109        3.66825        3.62004
H         -3.94315        6.10586        4.37982
H         -5.05991        5.56404        3.13233
H         -4.73882        4.54655        4.54391
C         -6.97283       -0.00260        0.82248
C         -6.72969        1.23208        1.71103
C         -7.69177        2.34809        1.26278
C         -7.02292        0.84762        3.17264
H         -6.33009       -0.83215        1.11665
H         -8.00552       -0.34163        0.90353
H         -6.78312        0.23084       -0.22453
H         -8.72699        2.00968        1.30350
H         -7.60509        3.22780        1.89923
H         -7.47648        2.65287        0.23878
H         -6.91105        1.70385        3.83682
H         -8.03996        0.47122        3.28105
H         -6.33698        0.07097        3.51040
C          5.60599       -5.16596        0.93749
C          5.14219       -3.97898        0.07054
C          6.33834       -3.04273       -0.17120
C          4.63791       -4.53750       -1.27538
H          6.05569       -4.82381        1.86917
H          4.77044       -5.82352        1.17727
H          6.35580       -5.75811        0.41291
H          6.72002       -2.65365        0.77256
H          7.15038       -3.56562       -0.67610
H          6.04904       -2.19260       -0.78700
H          3.74901       -5.15091       -1.12855
H          4.38423       -3.73964       -1.97195
H          5.39972       -5.15597       -1.74968
C          1.26555       -1.88619        4.68945
C          2.44517       -2.76153        4.21846
C          3.70799       -2.32401        4.98280
C          2.12340       -4.23020        4.54936
H          0.34478       -2.15185        4.17131
H          1.09095       -2.01476        5.75739
H          1.46557       -0.82906        4.51559
H          4.56388       -2.94421        4.71884
H          3.95902       -1.28981        4.74775
H          3.55906       -2.39950        6.05976
H          1.22905       -4.55870        4.02221
H          2.94180       -4.89117        4.26711
H          1.94706       -4.35783        5.61729
C          4.58593        5.42950       -1.24977
C          3.55155        4.53114       -0.54567
C          3.88795        4.47668        0.95631
C          2.15491        5.15067       -0.73957
H          4.56080        6.44017       -0.84243
H          5.59673        5.04527       -1.11431
H          4.38155        5.49898       -2.31809
H          4.86442        4.01991        1.11543
H          3.90720        5.47666        1.38905
H          3.15259        3.88971        1.50542
H          2.12179        6.16882       -0.35241
H          1.89368        5.18315       -1.79682
H          1.38883        4.57352       -0.22291
C          4.66850        0.44519       -4.92143
C          5.42744        0.89437       -3.65966
C          6.22257       -0.29672       -3.09267
C          6.42488        1.99920       -4.05786
H          4.12936        1.27996       -5.36743
H          5.35769        0.05662       -5.67104
H          3.94911       -0.34025       -4.69253
H          6.73194       -0.01605       -2.17100
H          5.56693       -1.13835       -2.87358
H          6.97430       -0.63911       -3.80364
H          7.13316        1.63110       -4.80007
H          5.90966        2.85575       -4.49221
H          6.99781        2.33944       -3.19541
H         -1.04101        0.34008       -5.35889
H          2.24787        2.01561       -4.33478
H         -2.32540        0.42476       -4.15338
H         -2.26384       -0.92091       -5.29273
H          0.90169        1.69075       -5.42549
H          1.47465        0.43311       -4.32524
