58
-89.86404069
P          1.47139        0.29052        0.87791
C          1.50224        2.02797        0.42958
C          1.69563        2.34566       -0.89508
C          1.72920        3.67013       -1.28974
C          1.57648        4.66882       -0.34844
C          1.39726        4.34616        0.98264
C          1.36281        3.01972        1.37365
H          1.22750        2.75634        2.40996
H          1.82771        1.54789       -1.60896
C          3.13622       -0.38320        0.88127
C          4.19887        0.47507        1.05168
C          5.49025       -0.02106        1.06331
C          5.70720       -1.37545        0.90437
C          4.63814       -2.23284        0.73439
C          3.34806       -1.73387        0.72459
H          2.50761       -2.39274        0.57772
H          4.01292        1.53064        1.17088
C          0.72959       -0.02136        2.53232
C          0.08937       -1.40385        2.58943
C         -1.36967       -1.44252        2.15404
P         -1.75924       -0.76757        0.47711
C         -3.41114       -1.36517        0.07309
C         -3.64816       -2.23620       -0.96464
C         -4.93081       -2.68355       -1.21699
C         -5.97673       -2.25138       -0.42639
C         -5.74064       -1.37276        0.61219
C         -4.45327       -0.92982        0.86140
H         -4.25570       -0.24121        1.66798
H         -2.82873       -2.54789       -1.58772
C         -1.85866        1.03244        0.45662
C         -2.02623        1.76831        1.60712
C         -2.08566        3.14796        1.53874
C         -1.98737        3.78349        0.31719
C         -1.83848        3.04209       -0.83726
C         -1.77935        1.66238       -0.76473
H         -1.66803        1.06836       -1.65848
H         -2.12882        1.26865        2.55574
Pd         0.24861       -0.81752       -0.74690
Cl         2.08585       -0.78811       -2.04509
Cl        -0.92093       -1.94758       -2.28795
H         -1.74245       -2.47001        2.15267
H         -1.99456       -0.89556        2.86167
H          0.67691       -2.09301        1.96788
H          0.16769       -1.80827        3.61084
H          1.54775        0.08028        3.25012
H          0.00697        0.76011        2.76435
H          1.87497        3.92009       -2.32769
H          1.28099        5.12660        1.71656
H          6.32406        0.64899        1.19384
H          4.80767       -3.28910        0.60452
H         -5.11377       -3.36411       -2.03233
H         -6.55647       -1.03195        1.22826
H         -2.20878        3.72673        2.43943
H         -1.76300        3.53561       -1.79217
H          1.59987        5.70250       -0.65275
H          6.71266       -1.76372        0.91021
H         -6.97858       -2.59745       -0.62211
H         -2.02728        4.85926        0.26469
