64
-97.20935963
Cl        -1.47517       -1.51883       -2.59927
Cl         1.68137       -1.38458       -2.89209
P          1.95648       -0.59710        0.28240
C          2.22331       -2.27325        1.02158
C          3.72088       -0.10852       -0.02364
P         -1.28434       -0.16670        0.38313
C          1.22783        0.58301        1.47213
C         -0.20326        0.80708        1.49833
C         -0.47401        1.90151        2.41991
C          0.79833        2.36739        2.94306
C          1.85078        1.55659        2.35539
H         -1.45301        2.32447        2.64959
H          0.93905        3.18234        3.65656
Pd         0.22698       -0.96906       -1.24046
H          2.92254        1.65682        2.53895
C         -4.90046        2.33343       -0.81612
C         -4.15958        1.69434       -1.79012
C         -3.07470        0.91820       -1.42933
C         -2.72394        0.79603       -0.10402
C         -3.47449        1.41339        0.87084
C         -4.56442        2.18796        0.51533
H         -5.74846        2.93769       -1.09462
H         -4.43066        1.79224       -2.82857
H         -2.51432        0.37984       -2.17455
H         -3.21550        1.27371        1.90779
H         -5.15045        2.67521        1.27726
C         -2.70731       -3.98800        2.38253
C         -2.37129       -2.89225        3.15404
C         -1.94290       -1.72610        2.54520
C         -1.85224       -1.66837        1.17376
C         -2.19034       -2.75439        0.40127
C         -2.61902       -3.92131        1.00561
H         -3.04104       -4.89687        2.85616
H         -2.44174       -2.94469        4.22810
H         -1.67354       -0.86177        3.13131
H         -2.11437       -2.67801       -0.67154
H         -2.88303       -4.77487        0.40312
C          4.06880       -0.10318       -1.49559
H          3.84946        0.89464        0.40359
C          4.51214       -1.15845        0.78114
H          4.70877       -0.78264        1.79598
C          3.73982       -2.50185        0.87054
H          5.50041       -1.30829        0.32242
C          1.74556       -2.29410        2.45726
H          1.65138       -2.98769        0.41364
H          4.10714       -3.10559        1.71292
H          3.94082       -3.09804       -0.03146
H          2.28619       -1.55504        3.05195
H          0.68252       -2.05469        2.52534
H          1.90139       -3.27209        2.91875
H          3.44578        0.59593       -2.05579
H          5.11294        0.17221       -1.65962
H          3.91765       -1.09408       -1.92662
Fe         0.75889        2.45410        0.88460
C         -0.20338        2.81344       -0.89388
C          1.12709        2.29384       -1.14045
C          2.07984        3.19149       -0.51608
C          1.33893        4.27708        0.10297
C         -0.07561        4.03914       -0.12730
H         -1.13797        2.37444       -1.24353
H          1.36674        1.41181       -1.73694
H          3.16742        3.09597       -0.54809
H          1.76948        5.12707        0.63699
H         -0.89830        4.67734        0.20320
