111
-148.54975138
P         -2.63717        2.12199        0.41884
P          0.13679        0.51562        0.54788
C         -1.66570        2.07251        1.94980
C         -0.46666        1.39354        1.99917
C         -3.29860        3.82232        0.10795
C         -2.59876        4.47730       -1.06268
C         -2.14101        2.70979        3.07824
H         -3.08501        3.22884        3.03827
C         -1.41085        2.66808        4.25373
H         -1.78169        3.16641        5.13450
C         -0.21117        1.98444        4.30044
H          0.35559        1.94823        5.21623
C          0.25960        1.34045        3.17016
H          1.18815        0.79142        3.19329
Pd        -1.29528        1.12828       -1.21573
Cl        -2.96575        1.58795       -2.67389
Cl         0.01776       -0.09872       -2.61175
C         -4.80508        3.57741       -0.10032
C         -4.21762        1.17367        0.54029
H         -1.52349        4.55981       -0.88701
H         -2.73759        3.89221       -1.97303
H         -2.99019        5.47951       -1.25209
H         -5.00105        3.48744       -1.17761
H         -5.38608        4.45037        0.23367
H         -4.31303        0.62938       -0.40773
C         -5.28131        2.28337        0.61937
C         -4.20255        0.21963        1.71570
H         -3.12709        4.39396        1.02925
H         -5.48615        2.50399        1.67600
H         -6.23590        1.92914        0.20124
H         -5.13592       -0.34377        1.78524
H         -3.37929       -0.49450        1.63752
H         -4.07366        0.76271        2.65353
C         -1.14424       -3.84278        0.34939
C         -0.18198       -3.46839        1.32508
C          0.21212       -2.14133        1.38809
C         -0.38472       -1.19954        0.59264
C         -1.41037       -1.53587       -0.24789
C         -1.83152       -2.84495       -0.38840
O         -1.37878       -5.21571        0.07163
C          0.46030       -4.48299        2.28420
H          1.00521       -1.82833        2.04426
H         -1.80961       -0.58095       -0.86217
C         -2.94239       -3.16708       -1.39704
C          4.59619        0.86484       -0.31286
C          3.87081       -0.28353       -0.72637
C          2.51350       -0.33051       -0.45666
C          1.89456        0.66187        0.25697
C          2.61239        1.71716        0.75694
C          3.97520        1.82531        0.53019
O          5.90772        1.09010       -0.80430
C          4.49627       -1.48798       -1.44964
H          1.91306       -1.14715       -0.82166
H          2.09254        2.46662        1.32881
C          4.73270        2.96993        1.22521
C          1.75212       -5.03089        1.65926
C          0.81060       -3.80855        3.63003
C         -0.50683       -5.63801        2.60221
C         -3.75109       -4.40235       -0.96402
C         -3.93672       -1.99199       -1.50471
C         -2.31142       -3.39789       -2.77866
C         -0.50344       -5.76318       -0.90670
H          2.23161       -5.75082        2.32199
H          1.55397       -5.52654        0.71194
H          2.45960       -4.22438        1.47016
H         -0.05953       -3.30231        4.04722
H          1.14867       -4.54718        4.35651
H          1.61140       -3.07899        3.51984
H         -0.07571       -6.31986        3.33480
H         -1.44313       -5.25411        3.00586
H         -0.74048       -6.21711        1.71247
H         -3.13155       -5.29527       -0.94187
H         -4.16554       -4.25883        0.03336
H         -4.57618       -4.59055       -1.65060
H         -4.33400       -1.73361       -0.52415
H         -3.46767       -1.10881       -1.93471
H         -4.77708       -2.25276       -2.14752
H         -1.60984       -4.22843       -2.75799
H         -3.07387       -3.61777       -3.52539
H         -1.76573       -2.51193       -3.10324
H          0.04021       -6.60637       -0.48086
H         -1.08332       -6.12579       -1.75525
H          0.20541       -5.00768       -1.24827
C          5.92015        1.81513       -2.02278
C          4.00747       -2.79462       -0.78526
C          4.05864       -1.47936       -2.92379
C          6.03239       -1.48916       -1.36722
C          4.30081        3.04648        2.70677
C          6.25637        2.75531        1.21356
C          4.39609        4.30128        0.53393
H          4.23608       -2.79100        0.28007
H          2.93339       -2.93129       -0.89986
H          4.49336       -3.66254       -1.23027
H          4.46395       -2.33961       -3.45576
H          2.97281       -1.51333       -3.00770
H          4.40146       -0.57926       -3.43035
H          6.44841       -2.39818       -1.80100
H          6.45690       -0.64455       -1.90455
H          6.36153       -1.42500       -0.33068
H          3.25095        3.31542        2.81010
H          4.45372        2.08780        3.20165
H          4.88141        3.79731        3.24216
H          6.76609        3.52451        1.79328
H          6.51098        1.78468        1.63772
H          6.65196        2.79084        0.20129
H          4.70234        4.29116       -0.51029
H          4.90178        5.13302        1.02377
H          3.32441        4.49549        0.56393
H          5.46801        2.79502       -1.87943
H          6.95040        1.93909       -2.35706
H          5.35648        1.27731       -2.78338
