111
-148.55150401
P         -2.61202        2.04672        0.29580
P          0.10449        0.44569        0.55420
C         -1.84882        1.81033        1.92879
C         -0.64197        1.15289        2.02965
C         -3.57482        3.63010        0.25593
C         -3.15224        4.51703       -0.89407
C         -2.47302        2.27254        3.07045
H         -3.42623        2.76903        2.99371
C         -1.88023        2.08149        4.30679
H         -2.36792        2.44271        5.19750
C         -0.66749        1.42619        4.40173
H         -0.20810        1.27471        5.36464
C         -0.04792        0.95526        3.25813
H          0.89000        0.42488        3.31337
Pd        -0.95763        1.46463       -1.22307
Cl        -2.31489        2.22408       -2.83772
Cl         0.71262        0.85669       -2.59630
C         -5.03688        3.14370        0.16797
C         -3.95845        0.82788       -0.06046
H         -2.08129        4.72996       -0.85980
H         -3.36213        4.03366       -1.84884
H         -3.68823        5.46905       -0.88504
H         -5.63136        3.87105       -0.40396
H         -5.48520        3.12073        1.17213
H         -3.61673        0.21242       -0.90422
C         -5.13947        1.73031       -0.47208
C         -4.23501       -0.03923        1.14836
H         -3.38320        4.13895        1.21004
H         -6.08699        1.24591       -0.19422
H         -5.16658        1.83008       -1.56727
H         -4.55290        0.57131        1.99557
H         -5.02459       -0.76760        0.94848
H         -3.34069       -0.58583        1.45486
C         -1.40864       -3.80393       -0.06818
C         -0.76732       -3.11185       -1.12691
C         -0.33903       -1.81728       -0.89454
C         -0.45807       -1.24122        0.34168
C         -0.97370       -1.94483        1.39784
C         -1.42663       -3.24336        1.23512
O         -2.06627       -5.03756       -0.31866
C         -0.56130       -3.71984       -2.52235
H          0.08299       -1.22311       -1.68651
H         -1.02750       -1.45831        2.35565
C         -1.95256       -4.01412        2.45621
C          4.64078        0.66182        0.28533
C          4.00530       -0.58359        0.52327
C          2.62299       -0.60845        0.59851
C          1.88833        0.54564        0.51951
C          2.50238        1.76385        0.39639
C          3.88230        1.86054        0.31399
O          6.02705        0.70441       -0.02082
C          4.78126       -1.90352        0.65377
H          2.09515       -1.54089        0.69927
H          1.88231        2.64242        0.34436
C          4.52838        3.25080        0.20885
C         -0.39962       -5.24872       -2.44741
C         -1.75740       -3.35362       -3.41417
C          0.72766       -3.16319       -3.17029
C         -1.25882       -3.52851        3.74922
C         -3.46462       -3.78208        2.59697
C         -1.65769       -5.51954        2.32579
C         -3.42597       -4.89732       -0.71116
H         -0.18976       -5.66923       -3.43058
H          0.42100       -5.51519       -1.78212
H         -1.30103       -5.72592       -2.07166
H         -2.68815       -3.73651       -3.00208
H         -1.85477       -2.27165       -3.50175
H         -1.63767       -3.76398       -4.41644
H          0.63534       -2.10529       -3.41100
H          1.58108       -3.28954       -2.50469
H          0.94892       -3.68413       -4.10146
H         -0.17468       -3.56298        3.64408
H         -1.54750       -2.50952        4.00313
H         -1.53319       -4.15831        4.59521
H         -3.86369       -4.32188        3.45536
H         -3.68155       -2.72344        2.73543
H         -3.99949       -4.11714        1.71172
H         -0.59124       -5.69069        2.18285
H         -1.97138       -6.05931        3.21895
H         -2.18196       -5.95392        1.47807
H         -3.72048       -3.84712       -0.69519
H         -3.56165       -5.29659       -1.71604
H         -4.06149       -5.46422       -0.03091
C          6.31603        0.59327       -1.40897
C          4.92458       -2.54681       -0.73404
C          6.16848       -1.67362        1.28027
C          4.02854       -2.88929        1.57692
C          4.62575        3.65281       -1.27076
C          3.67680        4.30575        0.95107
C          5.92450        3.26681        0.85756
H          5.46580       -1.89625       -1.41669
H          5.46208       -3.49272       -0.67262
H          3.94532       -2.74242       -1.17033
H          6.07564       -1.17970        2.24691
H          6.69208       -2.61745        1.43030
H          6.79242       -1.04915        0.64596
H          3.79434       -2.42263        2.53339
H          3.09906       -3.23518        1.12690
H          4.63483       -3.77285        1.77528
H          5.23762        2.95003       -1.83093
H          3.63790        3.67001       -1.73063
H          5.06646        4.64353       -1.37854
H          4.19444        5.26403        0.98819
H          2.72345        4.47741        0.45365
H          3.47860        3.99255        1.97581
H          5.86896        2.94028        1.89547
H          6.35360        4.26833        0.83932
H          6.61238        2.60563        0.33669
H          6.86311        1.47560       -1.74061
H          6.94304       -0.28085       -1.58378
H          5.39305        0.50010       -1.98281
