87
-129.18198790
P         -1.55008       -0.29172       -0.42987
P          1.73717        0.30255        0.23536
C         -1.10018        0.95843       -1.63791
C          1.53598       -0.80268       -1.18594
C          0.00479        0.73240       -2.44855
C          0.35708        1.70535       -3.40488
C         -0.41807        2.84829       -3.51731
C         -1.51410        3.05057       -2.70387
C         -1.85331        2.09988       -1.76125
C          2.16335       -2.01711       -1.03225
C          2.05184       -2.99164       -2.00510
C          1.29346       -2.74680       -3.12859
C          0.63495       -1.54088       -3.29650
C          0.76120       -0.54011       -2.31392
Cl         0.90895       -0.07209        3.36224
Cl        -1.68263       -1.81675        2.38948
H         -2.10190        3.94861       -2.80055
H         -2.71040        2.24456       -1.12474
H          2.73740       -2.20456       -0.13693
H          2.54743       -3.94040       -1.88037
H         -0.14847        3.59019       -4.24968
H          1.19319       -3.50607       -3.88561
C         -2.46825       -4.20111       -2.55173
C         -1.64065       -4.21517       -1.43727
C         -1.39233       -3.01601       -0.78113
C         -1.93283       -1.84071       -1.24742
C         -2.74707       -1.83307       -2.35549
C         -3.02037       -3.02052       -3.00893
H         -2.67819       -5.12675       -3.06000
C         -1.05669       -5.48601       -0.92950
H         -0.77286       -3.00577        0.09950
H         -3.15598       -0.89875       -2.70724
H         -3.65839       -3.02267       -3.87743
C         -5.16338        1.09136        1.97688
C         -5.24756       -0.04797        1.20170
C         -4.15353       -0.46304        0.46659
C         -2.98802        0.26565        0.50559
C         -2.90184        1.40024        1.27837
C         -3.98769        1.82724        2.03267
H         -6.01416        1.41652        2.55106
H         -6.16268       -0.61647        1.17351
H         -4.20112       -1.35821       -0.13158
H         -1.98474        1.96270        1.29599
C         -3.89142        3.05897        2.86220
C          6.07327       -0.05851        1.57923
C          5.76760        0.12366        0.24485
C          4.44747        0.23392       -0.15188
C          3.44470        0.15610        0.78701
C          3.74996       -0.02222        2.11484
C          5.06914       -0.12608        2.53473
H          7.09995       -0.15072        1.89036
H          6.55622        0.17764       -0.48768
H          4.19280        0.36988       -1.19131
H          2.95273       -0.08141        2.83373
C          5.39255       -0.34670        3.97073
C          0.80975        4.71851       -0.30631
C          1.68512        4.09487       -1.17337
C          1.97877        2.75405       -1.01031
C          1.38569        2.04832        0.00922
C          0.54510        2.67643        0.89958
C          0.23845        4.02349        0.75053
H          0.56904        5.75955       -0.43894
H          2.13163        4.64919       -1.98251
H          2.65602        2.25021       -1.68071
H          0.16161        2.12614        1.74206
C         -0.70178        4.69995        1.68410
Pd        -0.11122       -0.54710        1.41467
C          1.54196        1.53229       -4.28972
C         -0.20071       -1.33782       -4.51296
H          2.14304        2.44235       -4.31710
H          2.18557        0.72346       -3.94172
H          1.23446        1.30318       -5.31078
H         -0.90607       -0.51668       -4.38184
H          0.42217       -1.11380       -5.37973
H         -0.78079       -2.23350       -4.73954
H         -0.07132       -5.31635       -0.49276
H         -1.69442       -5.92506       -0.16110
H         -0.94183       -6.21630       -1.73173
H         -3.97045        3.95237        2.24131
H         -4.68622        3.09747        3.60834
H         -2.93915        3.09706        3.39293
H          5.46616       -1.41242        4.19156
H          6.34214        0.11983        4.23672
H          4.62242        0.07769        4.61652
H         -1.70763        4.73121        1.26319
H         -0.75044        4.17829        2.64088
H         -0.38760        5.72563        1.88250
