111
-148.55452762
P         -2.39926        2.34817       -0.11537
P         -0.00589        0.36229        0.49015
C         -1.74828        2.21542        1.56821
C         -0.74293        1.31246        1.83489
C         -2.54626        4.10908       -0.65743
C         -1.79287        4.31928       -1.95288
C         -2.27213        2.98522        2.58696
H         -3.04364        3.70498        2.36713
C         -1.80155        2.82984        3.87940
H         -2.21137        3.42883        4.67619
C         -0.81406        1.90219        4.15008
H         -0.45335        1.77453        5.15745
C         -0.28402        1.14009        3.12444
H          0.48572        0.40965        3.31995
Pd        -1.19625        0.88848       -1.43911
Cl        -2.71704        1.16822       -3.06526
Cl         0.00691       -0.64573       -2.55714
C         -4.07048        4.31658       -0.77960
C         -4.16801        1.81053       -0.25952
H         -2.19553        3.67682       -2.73850
H         -1.86933        5.35299       -2.29885
H         -0.73310        4.07678       -1.84090
H         -4.27931        5.03329       -1.58715
H         -4.45986        4.78284        0.13732
H         -4.16627        0.88962       -0.85858
C         -4.81721        2.97650       -1.03195
C         -4.79242        1.55733        1.09678
H         -2.12075        4.72876        0.14360
H         -5.87651        3.06201       -0.74879
H         -4.81401        2.75643       -2.10968
H         -4.20685        0.84226        1.67870
H         -4.84841        2.48137        1.67394
H         -5.80937        1.16881        1.00404
C         -1.15610       -4.03443        0.70274
C          0.20677       -3.66978        0.85149
C          0.53789       -2.32694        0.78512
C         -0.43052       -1.36755        0.65145
C         -1.75796       -1.70606        0.61177
C         -2.15823       -3.03120        0.66559
O         -1.51224       -5.40242        0.56213
C          1.32455       -4.70759        1.04036
H          1.56533       -2.01111        0.82092
H         -2.48094       -0.91403        0.51551
C         -3.65913       -3.35842        0.62847
C          4.49366        1.06547        0.09919
C          3.82887        0.17852       -0.78430
C          2.45920        0.02965       -0.65278
C          1.76458        0.64422        0.35568
C          2.42237        1.42484        1.27150
C          3.79019        1.62776        1.19433
O          5.84864        1.42239       -0.13327
C          4.55605       -0.59658       -1.89428
H          1.90208       -0.55202       -1.36477
H          1.84712        1.89196        2.04977
C          4.48608        2.46903        2.27643
C          2.51675       -4.09552        1.81107
C          0.82752       -5.90989        1.86329
C          1.82376       -5.17571       -0.33509
C         -4.48406       -2.21738        1.26506
C         -4.10529       -3.51958       -0.83315
C         -3.97010       -4.63620        1.42840
C         -1.53502       -5.86397       -0.78295
H          3.25189       -4.86136        2.05739
H          3.03149       -3.33738        1.22266
H          2.18340       -3.64012        2.74322
H          1.63433       -6.61870        2.04802
H          0.43773       -5.58091        2.82600
H          0.03317       -6.44314        1.34696
H          1.03119       -5.65886       -0.90027
H          2.17958       -4.33095       -0.92353
H          2.64363       -5.88613       -0.23224
H         -4.46287       -1.32008        0.64929
H         -5.52953       -2.50655        1.36998
H         -4.10411       -1.96770        2.25541
H         -3.91625       -2.60533       -1.39557
H         -3.56638       -4.32521       -1.32504
H         -5.17066       -3.73989       -0.89457
H         -3.62122       -4.53935        2.45595
H         -5.04162       -4.83324        1.45101
H         -3.48550       -5.50626        0.99307
H         -0.85564       -6.70940       -0.89009
H         -2.53877       -6.20356       -1.03739
H         -1.23630       -5.06593       -1.46396
C          6.01176        2.54875       -0.98620
C          3.86163       -1.95362       -2.15038
C          4.52376        0.22573       -3.19123
C          6.01012       -0.91024       -1.49772
C          4.50472        3.94251        1.84279
C          3.73298        2.36177        3.62228
C          5.92167        1.97153        2.52531
H          3.76563       -2.51639       -1.22271
H          2.86921       -1.82745       -2.58010
H          4.43835       -2.55790       -2.85015
H          5.02619       -0.30226       -4.00123
H          3.49617        0.41729       -3.49944
H          5.01446        1.18746       -3.06044
H          6.50141       -1.51689       -2.25806
H          6.59406       -0.00187       -1.37474
H          6.04105       -1.45669       -0.55566
H          3.49107        4.31099        1.68675
H          4.97807        4.56646        2.60049
H          5.05133        4.07265        0.91197
H          3.58870        1.31902        3.90401
H          4.29440        2.84874        4.41933
H          2.75769        2.84440        3.57876
H          6.54220        2.09241        1.64079
H          5.92096        0.91500        2.79128
H          6.39340        2.52549        3.33654
H          6.59526        3.31293       -0.47282
H          6.55265        2.25423       -1.88526
H          5.04022        2.95850       -1.26523
