171
-217.83747101
P         -1.64607        0.48202       -0.33129
P          1.54658       -0.42907       -0.11678
C         -0.91135        1.27741       -1.77208
C          0.71245       -1.43843       -1.36233
C         -0.07381        0.56868       -2.62621
C          0.58524        1.25605       -3.66325
C          0.33041        2.60531       -3.84458
C         -0.54204        3.28119       -3.01737
C         -1.14834        2.61561       -1.96951
C          0.72605       -2.79717       -1.15169
C          0.12262       -3.65354       -2.05178
C         -0.51392       -3.13821       -3.15935
C         -0.57014       -1.77186       -3.37617
C          0.05849       -0.90100       -2.46438
Cl         1.48932        0.78767        2.90995
Cl        -1.70939        0.24177        2.96384
C         -1.29444       -1.25221       -4.56945
C          1.53649        0.55988       -4.57136
H         -0.74207        4.32759       -3.18056
H         -1.81236        3.14199       -1.30318
H          1.21253       -3.19298       -0.27368
H          0.15040       -4.71860       -1.88980
H          0.82363        3.12638       -4.64778
H         -0.99048       -3.80017       -3.86258
C         -3.80703       -3.44207       -0.94724
C         -4.04574       -2.40953       -1.84741
C         -3.34922       -1.21865       -1.67468
C         -2.47226       -1.07752       -0.62800
C         -2.27344       -2.09630        0.26994
C         -2.92569       -3.31124        0.11928
H         -4.34039       -4.36494       -1.07621
H         -3.49451       -0.38628       -2.34169
H         -1.62679       -1.93195        1.11480
C         -4.54709        3.26913        1.76072
C         -5.04321        2.16755        1.07405
C         -4.13242        1.34162        0.42833
C         -2.78897        1.61964        0.46460
C         -2.31669        2.71727        1.13983
C         -3.18887        3.56150        1.81348
H         -5.24250        3.90436        2.27627
H         -4.46274        0.46274       -0.09621
H         -1.25600        2.90149        1.16654
C          4.70435       -3.22902        1.59058
C          4.57278       -3.09534        0.21433
C          3.60258       -2.22354       -0.26468
C          2.80618       -1.51048        0.59969
C          2.95744       -1.65883        1.95438
C          3.90444       -2.52379        2.48076
H          5.44988       -3.90193        1.97058
H          3.43796       -2.11965       -1.32318
H          2.34056       -1.07884        2.61447
C          3.86741        3.22698       -1.47049
C          2.74972        3.40764       -0.66396
C          2.01173        2.28407       -0.31520
C          2.39437        1.03272       -0.73444
C          3.50655        0.87554       -1.52471
C          4.27095        1.97033       -1.90642
H          4.44850        4.08410       -1.75066
H          1.13933        2.38652        0.30538
H          3.80308       -0.11336       -1.82521
Pd        -0.09458        0.28955        1.40527
C         -5.23464       -1.32837       -3.82264
C         -5.09083       -2.59522       -2.95666
C         -6.45892       -2.89631       -2.31559
C         -4.67376       -3.76852       -3.86193
H         -4.29528       -1.07474       -4.31160
H         -5.98192       -1.47584       -4.60223
H         -5.55044       -0.47647       -3.22063
H         -7.22994       -3.01076       -3.07732
H         -6.42999       -3.81490       -1.73084
H         -6.75879       -2.08629       -1.65096
H         -5.38893       -3.90915       -4.67221
H         -3.69492       -3.58761       -4.30391
H         -4.61835       -4.70086       -3.30126
C         -3.26116       -3.93898        2.51596
C         -2.70173       -4.41451        1.16273
C         -1.19368       -4.69957        1.30183
C         -3.40797       -5.72448        0.76536
H         -3.12921       -4.70129        3.28348
H         -2.75774       -3.03336        2.85312
H         -4.32546       -3.71853        2.43656
H         -1.01203       -5.48735        2.03263
H         -0.77425       -5.02216        0.34991
H         -0.64747       -3.81516        1.62752
H         -3.21040       -6.50759        1.49727
H         -4.48810       -5.58956        0.71341
H         -3.05612       -6.07921       -0.20333
C         -7.30335        3.07384        0.46867
C         -6.55015        1.87410        1.07174
C         -7.02055        1.63663        2.51827
C         -6.88340        0.62016        0.23788
H         -8.37613        2.88425        0.43600
H         -7.14310        3.97817        1.05445
H         -6.96386        3.26907       -0.54841
H         -6.85302        2.51646        3.13838
H         -8.08473        1.40356        2.54972
H         -6.47842        0.80403        2.96626
H         -6.57052        0.74388       -0.79878
H         -6.39219       -0.26397        0.64410
H         -7.95642        0.42910        0.23798
C         -1.66263        4.18871        3.69618
C         -2.61946        4.73703        2.61984
C         -3.73103        5.54377        3.31732
C         -1.85099        5.67806        1.67545
H         -0.82876        3.64920        3.24886
H         -1.25112        4.99570        4.30190
H         -2.18485        3.49906        4.35884
H         -4.42677        5.96251        2.59042
H         -4.29070        4.91937        4.01345
H         -3.30855        6.37276        3.88502
H         -2.50374        6.05197        0.88689
H         -1.44880        6.53381        2.21741
H         -1.01723        5.16223        1.20349
C          5.26828       -5.40563       -0.46885
C          5.47842       -3.90231       -0.72675
C          6.94810       -3.52772       -0.46156
C          5.16170       -3.61368       -2.20793
H          4.22609       -5.68106       -0.62990
H          5.88373       -6.00612       -1.13853
H          5.53074       -5.67305        0.55403
H          7.23807       -3.76168        0.56210
H          7.61596       -4.07117       -1.12973
H          7.10767       -2.46115       -0.61888
H          5.81398       -4.19165       -2.86243
H          4.13297       -3.88133       -2.44887
H          5.30947       -2.55999       -2.44361
C          5.11431       -3.67697        4.40162
C          4.02996       -2.65712        4.00498
C          2.68174       -3.12582        4.58466
C          4.40166       -1.28754        4.60343
H          6.09318       -3.37309        4.03120
H          5.18507       -3.76385        5.48580
H          4.88563       -4.66627        4.00562
H          2.74419       -3.25112        5.66541
H          1.89005       -2.40623        4.37904
H          2.38673       -4.08065        4.14989
H          4.51533       -1.35203        5.68533
H          5.34118       -0.92708        4.18520
H          3.63518       -0.54259        4.39302
C          1.03184        5.21995       -0.82952
C          2.32984        4.78664       -0.13202
C          3.41097        5.85283       -0.39583
C          2.09812        4.70523        1.39056
H          0.23655        4.49877       -0.64913
H          0.69677        6.19202       -0.46820
H          1.18167        5.29280       -1.90633
H          3.12058        6.81169        0.03349
H          4.36205        5.56340        0.05091
H          3.56189        6.00651       -1.46404
H          1.84015        5.68231        1.79862
H          1.28725        4.02197        1.63761
H          2.99615        4.35366        1.89782
C          6.50834        0.84667       -1.87846
C          5.56418        1.74172       -2.70422
C          6.28954        3.06643       -3.00921
C          5.23648        1.04968       -4.03911
H          7.44711        0.67722       -2.40547
H          6.73775        1.31102       -0.91962
H          6.05857       -0.12501       -1.67844
H          6.57352        3.57936       -2.09050
H          7.20039        2.88555       -3.57987
H          5.65861        3.73249       -3.59754
H          4.59662        1.68319       -4.65207
H          6.14540        0.84663       -4.60526
H          4.72482        0.10110       -3.88043
H         -0.64191       -1.23320       -5.44301
H          1.88964       -0.37634       -4.13637
H         -1.66643       -0.24072       -4.40041
H         -2.15044       -1.88191       -4.81264
H          2.40872        1.18380       -4.76618
H          1.06910        0.33553       -5.53089
