72
-98.10445694
Fe        -0.01006        2.79744       -0.05037
P          1.86447       -0.04169       -0.06657
P         -1.86469       -0.03744        0.06719
C          1.44035        1.58220        0.67169
C          0.43208        1.80777        1.69077
C          0.36808        3.23406        1.95165
C          1.35891        3.88689        1.11697
C          2.03994        2.86534        0.34205
C         -1.42466        1.56609       -0.70736
C         -2.00914        2.86458       -0.40845
C         -1.32958        3.86059       -1.22033
C         -0.34885        3.17933       -2.04586
C         -0.40692        1.76427       -1.72390
C          3.22769       -0.77611        0.96194
C          4.42316        0.07916        0.50903
C          2.90794        0.26576       -1.57867
C          4.33260        0.44978       -1.00030
C         -3.24315       -0.76937       -0.94229
C         -4.42540        0.10683       -0.49542
C         -2.89454        0.31271        1.57956
C         -4.32321        0.49243        1.00910
H         -0.17512        1.03665        2.16212
H         -0.29530        3.72558        2.66660
H          1.57247        4.95740        1.09359
H          2.83868        3.03144       -0.38271
H         -2.80990        3.05529        0.30899
H          0.19304        0.97584       -2.17647
Cl         1.57590       -3.03508       -0.36191
Cl        -1.61720       -3.00825        0.36464
Pd         0.00267       -1.47424        0.04285
H          3.36508       -1.81274        0.63306
C          2.96006       -0.73233        2.46766
H          2.54376        1.19064       -2.04171
C          2.84098       -0.88532       -2.58033
H          5.37127       -0.43309        0.73568
H          4.43552        0.99664        1.11570
H          4.68586        1.47858       -1.16415
H          5.02707       -0.18206       -1.57133
H         -1.54307        4.93184       -1.23134
H          0.31372        3.64552       -2.77865
H          3.92038       -0.70130        3.00109
H          3.65608       -0.77425       -3.30911
H         -3.39268       -1.79953       -0.59905
C         -2.98032       -0.74934       -2.44818
H         -2.52125        1.24638        2.01695
C         -2.82470       -0.81492        2.60801
H         -5.38109       -0.39540       -0.71248
H         -4.42802        1.01756       -1.11222
H         -4.67433        1.52312        1.16545
H         -5.01413       -0.13330        1.59097
H         -3.94184       -0.74436       -2.98028
H         -3.03176       -1.76399        2.09649
C          2.14226       -1.91445        2.96489
H          1.20249       -2.00506        2.42277
H          2.67850       -2.85378        2.81700
H          1.90541       -1.83429        4.02819
C          1.51695       -0.99112       -3.31533
H          1.31197       -0.09143       -3.89861
H          1.49653       -1.83931       -4.00345
H          0.69386       -1.12215       -2.61548
C         -2.14268       -1.92671       -2.92213
H         -1.20544       -1.99315       -2.37223
H         -2.66509       -2.87164       -2.76103
H         -1.90094       -1.86057       -3.98529
C         -1.50413       -0.89512        3.35316
H         -0.67461       -1.03716        2.66312
H         -1.30872        0.01936        3.91642
H         -1.48305       -1.72654        4.06145
H          2.46513        0.21572        2.71395
H          3.05621       -1.82098       -2.04791
H         -2.50106        0.20184       -2.71297
H         -3.64396       -0.69201        3.33020
