105
-153.07103937
Cl         0.48538        1.96364        3.04333
Pd        -0.30294        1.42496        0.99826
P         -1.23825        0.75034       -1.01368
N         -0.22317       -0.36663       -1.90872
C          0.31344       -1.62188       -1.65756
C          0.22594       -2.29309       -0.41289
C          0.91309       -3.51046       -0.23000
C          0.81667       -4.19871        1.11197
C          1.33513       -5.64546        1.12857
C          2.64057       -5.77247        0.33792
C          2.43158       -5.34786       -1.12338
C          1.65942       -4.06170       -1.27330
C          1.69236       -3.41148       -2.49948
C          1.03642       -2.22297       -2.68788
H          1.10115       -1.71851       -3.63633
H          2.26140       -3.84499       -3.30448
H          3.39928       -5.24138       -1.63033
H          3.40576       -5.13438        0.79746
H          1.46970       -6.00013        2.16019
H          1.37047       -3.60045        1.84503
C         -0.70067       -1.85474        0.65833
C         -0.18816       -1.28291        1.85702
C         -1.06085       -1.10846        2.93616
C         -2.38009       -1.46960        2.84269
C         -2.88783       -2.05377        1.68845
C         -4.32488       -2.50235        1.67306
C         -4.55715       -3.69087        0.72972
C         -4.00391       -3.37945       -0.66415
C         -2.50374       -3.03644       -0.62158
C         -2.04629       -2.26076        0.59410
H         -1.92041       -3.96373       -0.67039
H         -4.55922       -2.53426       -1.08445
H         -5.62391       -3.95193        0.68052
H         -4.95502       -1.65808        1.37139
H         -3.03859       -1.31137        3.67981
H         -0.68722       -0.65137        3.83546
N          1.13977       -0.84961        1.97284
P          1.75703        0.22450        0.71107
C          2.92893       -0.65006       -0.32790
C          3.24951       -0.18883       -1.58215
C          4.19526       -0.86042       -2.33531
C          4.83006       -1.98863       -1.83207
C          4.51883       -2.41466       -0.54811
C          3.56906       -1.74432        0.20141
H          3.31574       -2.07044        1.19751
H          5.02097       -3.27547       -0.14115
C          5.85326       -2.70744       -2.64001
H          4.44583       -0.51144       -3.32247
H          2.76179        0.69116       -1.96691
C          2.72631        1.57725        1.38685
C          3.54231        1.36685        2.47170
C          4.29514        2.41269        2.97448
C          4.23299        3.67212        2.39274
C          3.41840        3.85666        1.28352
C          2.66703        2.81028        0.78077
H          2.03195        2.95094       -0.07993
H          3.37471        4.82566        0.81638
C          5.05721        4.79349        2.92240
H          4.93632        2.25627        3.82507
H          3.59039        0.38714        2.91924
H          1.37510       -0.40287        2.84992
H         -0.23287       -0.05635       -2.87261
C         -1.04771        2.34326       -1.81987
C         -2.09948        3.22426       -1.90260
C         -1.90934        4.46654       -2.47954
C         -0.66199        4.83843       -2.96384
C          0.38717        3.93350       -2.87246
C          0.19352        2.69077       -2.29720
H          1.00574        1.98779       -2.21397
H          1.35631        4.20826       -3.25252
C         -0.46259        6.16879       -3.60263
H         -2.73044        5.15910       -2.55196
H         -3.06128        2.94120       -1.50669
C         -2.95353        0.28169       -1.25787
C         -3.30826       -0.26066       -2.47071
C         -4.63306       -0.56533       -2.73003
C         -5.61141       -0.33002       -1.77324
C         -5.23716        0.23788       -0.56343
C         -3.91383        0.54386       -0.31060
H         -3.62740        1.01873        0.61166
H         -5.99133        0.44896        0.17540
C         -7.03945       -0.64669       -2.05083
H         -4.91408       -0.98975       -3.67866
H         -2.54722       -0.43840       -3.21359
Cl        -2.24455        2.43959        1.49677
H          1.90103       -6.13900       -1.66648
H          0.57943       -6.30733        0.68712
H          3.03564       -6.79658        0.39688
H         -0.22752       -4.17397        1.44797
H         -4.19053       -4.21750       -1.35024
H         -2.22038       -2.47359       -1.51897
H         -4.63900       -2.75524        2.69372
H         -4.05215       -4.57829        1.13164
H          5.86871       -3.77119       -2.39838
H          5.64835       -2.61457       -3.70748
H          6.84929       -2.30455       -2.45166
H          5.21881        4.68996        3.99626
H          6.03309        4.82077        2.43573
H          4.56917        5.75433        2.75322
H         -1.12560        6.91769       -3.16718
H          0.56227        6.51890       -3.47157
H         -0.66730        6.11923       -4.67294
H         -7.13007       -1.45985       -2.77243
H         -7.55741       -0.95339       -1.14094
H         -7.55740        0.22329       -2.45670
