171
-217.83467277
P         -1.48629        0.28900       -0.25838
P          1.65792       -0.75535        0.29278
C         -0.55603        0.91054       -1.67747
C          0.83906       -1.85510       -0.88548
C          0.20343        0.01109       -2.41573
C          0.95838        0.48110       -3.50767
C          0.88215        1.82086       -3.84991
C          0.11599        2.69912       -3.11315
C         -0.59329        2.24048       -2.02073
C          0.80378       -3.17705       -0.50919
C          0.14946       -4.10805       -1.29282
C         -0.48536       -3.70007       -2.44621
C         -0.47982       -2.37068       -2.83304
C          0.20568       -1.42645       -2.04600
Cl         0.92337       -0.60973        3.48994
Cl        -2.17686       -1.15758        2.64445
C         -1.21600       -1.97285       -4.06460
C          1.82076       -0.43891       -4.29938
H          0.07736        3.74122       -3.38521
H         -1.16256        2.93042       -1.42322
H          1.28580       -3.47705        0.40966
H          0.12858       -5.14458       -0.99841
H          1.43240        2.17441       -4.70513
H         -1.00564       -4.41776       -3.05789
C         -4.54058       -2.67335       -1.81091
C         -3.77088       -3.03174       -0.71164
C         -2.84915       -2.10876       -0.23699
C         -2.70339       -0.88895       -0.84711
C         -3.45904       -0.55880       -1.94535
C         -4.39824       -1.44928       -2.45251
H         -5.28171       -3.36412       -2.16789
H         -2.24360       -2.33165        0.62217
H         -3.29611        0.39415       -2.41712
C         -3.82151        3.72802        1.62815
C         -3.07853        2.90257        2.46249
C         -2.36275        1.86659        1.88063
C         -2.39583        1.64821        0.52363
C         -3.17028        2.45417       -0.27533
C         -3.88074        3.52277        0.25528
H         -4.37593        4.53968        2.05808
H         -1.80149        1.20553        2.51336
H         -3.22431        2.25244       -1.33109
C          5.54835       -2.75326        1.47083
C          5.17291       -2.72284        0.13364
C          3.95999       -2.12447       -0.18486
C          3.17189       -1.57866        0.79895
C          3.55916       -1.61997        2.11365
C          4.75936       -2.21379        2.47913
H          6.48443       -3.21017        1.73484
H          3.61588       -2.08198       -1.20448
H          2.90475       -1.19346        2.85089
C          2.95970        3.41455       -0.92224
C          1.89626        3.29751       -0.03607
C          1.49179        2.01864        0.32768
C          2.11409        0.91326       -0.20551
C          3.16436        1.05140       -1.07920
C          3.61610        2.31108       -1.45076
H          3.29962        4.39646       -1.19557
H          0.68469        1.87932        1.02357
H          3.64063        0.16449       -1.45784
Pd        -0.27454       -0.54768        1.59991
C         -5.40370       -4.50067        0.49383
C         -3.96588       -4.40110       -0.04649
C         -2.98684       -4.60600        1.12697
C         -3.72028       -5.51228       -1.08343
H         -6.13499       -4.41066       -0.30859
H         -5.56875       -5.45654        0.99065
H         -5.59840       -3.70689        1.21478
H         -1.95237       -4.54251        0.79034
H         -3.14306       -3.85806        1.90401
H         -3.12675       -5.58661        1.58133
H         -2.70975       -5.44637       -1.48501
H         -3.84045       -6.49804       -0.63445
H         -4.41729       -5.43862       -1.91727
C         -5.37175       -2.24317       -4.64309
C         -5.30818       -1.08014       -3.63342
C         -4.79079        0.16834       -4.37615
C         -6.71909       -0.78806       -3.09425
H         -4.37632       -2.49885       -5.00409
H         -5.80976       -3.13649       -4.20049
H         -5.98101       -1.97398       -5.50582
H         -3.76826        0.02081       -4.72304
H         -5.40957        0.38446       -5.24698
H         -4.81380        1.04893       -3.73527
H         -7.39835       -0.51537       -3.90174
H         -7.13100       -1.65993       -2.58667
H         -6.69537        0.03425       -2.37922
C         -3.67238        1.78025        4.61894
C         -3.06860        3.05112        3.99169
C         -3.89488        4.26696        4.45224
C         -1.62232        3.23043        4.48947
H         -4.69008        1.62175        4.26314
H         -3.08855        0.89708        4.36201
H         -3.70139        1.85629        5.70562
H         -3.86856        4.36317        5.53762
H         -3.50109        5.19100        4.02916
H         -4.93902        4.16734        4.15639
H         -0.99641        2.38376        4.21014
H         -1.17952        4.13286        4.06993
H         -1.59361        3.31858        5.57530
C         -5.78512        3.57530       -1.37280
C         -4.69541        4.41994       -0.68694
C         -3.75645        5.02011       -1.75115
C         -5.37469        5.57673        0.07070
H         -6.39029        4.18679       -2.04183
H         -5.34867        2.76932       -1.96113
H         -6.44722        3.12664       -0.63252
H         -4.29944        5.69058       -2.41699
H         -2.95414        5.58803       -1.28017
H         -3.30085        4.24268       -2.36330
H         -4.63689        6.20479        0.56982
H         -5.93740        6.21006       -0.61506
H         -6.07276        5.20052        0.81827
C          5.48230       -3.19269       -2.34848
C          6.09361       -3.32140       -0.93885
C          6.31980       -4.81481       -0.64047
C          7.44108       -2.57658       -0.92259
H          5.32332       -2.14775       -2.61405
H          6.14455       -3.62533       -3.09824
H          4.52749       -3.71452       -2.41126
H          6.80159       -4.95763        0.32604
H          5.37132       -5.35142       -0.62428
H          6.95397       -5.27256       -1.39951
H          7.29522       -1.51322       -1.11167
H          7.93854       -2.67941        0.04110
H          8.11196       -2.96670       -1.68779
C          5.40847       -3.75741        4.34602
C          5.22680       -2.28337        3.93989
C          4.20353       -1.63744        4.89506
C          6.56526       -1.53562        4.08104
H          4.47403       -4.30599        4.22929
H          6.16322       -4.24770        3.73230
H          5.72061       -3.83964        5.38699
H          4.05488       -0.58437        4.65740
H          3.23964       -2.14264        4.83786
H          4.54636       -1.69705        5.92784
H          7.33887       -1.98755        3.46135
H          6.45802       -0.49476        3.77620
H          6.91383       -1.55104        5.11355
C          0.02429        4.22718        1.41267
C          1.24987        4.56375        0.54559
C          0.78911        5.49047       -0.59549
C          2.28350        5.29463        1.42094
H          0.30447        3.59983        2.25787
H         -0.43292        5.13376        1.80874
H         -0.73231        3.70538        0.82940
H          0.31862        6.39003       -0.19889
H          1.62482        5.80179       -1.22056
H          0.06263        4.98780       -1.23206
H          3.15439        5.59128        0.83735
H          1.85463        6.19332        1.86394
H          2.62657        4.64967        2.22974
C          5.90656        3.31264       -1.63493
C          4.82539        2.50468       -2.37673
C          4.38679        3.26402       -3.64098
C          5.43711        1.15471       -2.80147
H          5.54428        4.30277       -1.36107
H          6.20829        2.80165       -0.72075
H          6.79198        3.44259       -2.25700
H          3.63220        2.69877       -4.18566
H          3.96306        4.23634       -3.39237
H          5.23127        3.42791       -4.31015
H          6.29756        1.30707       -3.45281
H          5.77608        0.58863       -1.93402
H          4.71430        0.54968       -3.34754
H         -1.33496       -0.89071       -4.12960
H          2.70568        0.07760       -4.67390
H         -2.21338       -2.41369       -4.07392
H         -0.69174       -2.31088       -4.95954
H          1.27982       -0.83849       -5.15804
H          2.16231       -1.27924       -3.69285
