105
-153.05836294
Cl         2.92436        2.32415        0.21758
Pd         0.88200        1.73124       -0.52384
P         -1.29112        1.27947       -1.27998
N         -1.38701       -0.33913       -0.70143
C         -0.42404       -1.23521       -1.14961
C         -0.09384       -2.31305       -0.28993
C          1.00420       -3.13396       -0.60473
C          1.40248       -4.24253        0.33675
C          2.16840       -5.37168       -0.36549
C          3.35873       -4.79765       -1.14074
C          2.90438       -3.76484       -2.18806
C          1.73707       -2.89962       -1.77239
C          1.37195       -1.85223       -2.61339
C          0.31694       -1.03113       -2.31271
H          0.06579       -0.20784       -2.95548
H          1.94159       -1.68404       -3.51161
H          3.74270       -3.11005       -2.45811
H          4.04886       -4.32051       -0.43481
H          2.49622       -6.13453        0.35482
H          2.03066       -3.81567        1.12451
C         -1.02876       -2.64478        0.81966
C         -1.19871       -1.81834        1.96621
C         -2.06848       -2.25060        2.96747
C         -2.78277       -3.41372        2.84441
C         -2.69829       -4.19023        1.69690
C         -3.57108       -5.41962        1.60572
C         -3.31830       -6.29247        0.36548
C         -3.05068       -5.42639       -0.86873
C         -1.81731       -4.53996       -0.64374
C         -1.84091       -3.79089        0.66949
H         -0.91528       -5.15895       -0.69072
H         -3.92378       -4.79104       -1.06343
H         -4.16200       -6.97405        0.18720
H         -4.61955       -5.09834        1.61938
H         -3.44936       -3.72094        3.63265
H         -2.18732       -1.64054        3.84628
N         -0.62133       -0.56287        2.14704
P          0.72629        0.28808        1.36501
C          2.15708       -0.79406        1.38895
C          3.11167       -0.77212        0.39997
C          4.23007       -1.57774        0.50546
C          4.40327       -2.40796        1.60502
C          3.43282       -2.41185        2.59706
C          2.30946       -1.61160        2.48386
H          1.54787       -1.61644        3.24787
H          3.56015       -3.04820        3.45609
C          5.61496       -3.26344        1.73726
H          4.98087       -1.55920       -0.26580
H          2.98749       -0.11810       -0.44717
C          1.09671        1.62694        2.52009
C          2.20711        1.57054        3.32896
C          2.48516        2.61038        4.19661
C          1.64868        3.71570        4.26590
C          0.53817        3.76148        3.43517
C          0.26464        2.71946        2.56911
H         -0.59333        2.76353        1.92200
H         -0.10911        4.62134        3.46617
C          1.96254        4.85130        5.17648
H          3.36062        2.57223        4.82214
H          2.86570        0.72045        3.27083
H         -0.73030       -0.14157        3.06193
H         -1.34329       -0.28812        0.31418
C         -1.90198        1.26145       -2.96698
C         -1.28578        1.95757       -3.97847
C         -1.79990        1.91224       -5.25980
C         -2.94077        1.17107       -5.53662
C         -3.54364        0.46378       -4.50493
C         -3.02583        0.51234       -3.22233
H         -3.48552       -0.03860       -2.41626
H         -4.41921       -0.12748       -4.71181
C         -3.48036        1.09951       -6.92277
H         -1.31446        2.45046       -6.05596
H         -0.39470        2.52091       -3.76200
C         -2.31475        2.34788       -0.27181
C         -2.80172        3.52095       -0.79702
C         -3.56334        4.36157       -0.00537
C         -3.84211        4.03005        1.31402
C         -3.32964        2.84673        1.82802
C         -2.56968        2.00732        1.03589
H         -2.13823        1.11195        1.45222
H         -3.52088        2.59206        2.85659
C         -4.63338        4.95031        2.17680
H         -3.94258        5.28525       -0.40800
H         -2.57801        3.77635       -1.82079
Cl         1.25161        2.88815       -2.41264
H          2.63079       -4.28253       -3.11530
H          1.49698       -5.88941       -1.06168
H          3.93777       -5.60331       -1.61359
H          0.52329       -4.63482        0.86025
H         -2.93075       -6.04871       -1.76687
H         -1.71975       -3.81632       -1.46307
H         -3.43634       -6.01252        2.51943
H         -2.45103       -6.94023        0.54588
H          6.28216       -2.87290        2.50681
H          5.34381       -4.28376        2.01253
H          6.17420       -3.30913        0.80177
H          1.05179        5.34522        5.51806
H          2.50506        4.51032        6.05934
H          2.57869        5.59465        4.66888
H         -4.55895        0.93616       -6.91780
H         -3.28877        2.02485       -7.46784
H         -3.01837        0.28088       -7.47624
H         -3.97985        5.65691        2.69020
H         -5.35156        5.52248        1.58783
H         -5.19207        4.39750        2.93334
