111
-148.55695202
P         -2.60014        1.96487        1.08367
P          0.13805        0.46022        0.48621
C         -1.46848        1.56960        2.44400
C         -0.26195        0.96010        2.17313
C         -3.45565        3.58604        1.33440
C         -2.89351        4.65100        0.41818
C         -1.81306        1.86414        3.74756
H         -2.76571        2.32275        3.95634
C         -0.94136        1.55417        4.77736
H         -1.20969        1.78400        5.79560
C          0.26983        0.94860        4.50250
H          0.94703        0.70482        5.30446
C          0.60861        0.64647        3.19581
H          1.54241        0.15817        2.96477
Pd        -1.36315        1.63975       -0.82815
Cl        -3.06811        2.41283       -2.05968
Cl         0.01056        1.23498       -2.56305
C         -4.93408        3.23560        1.08112
C         -4.05856        0.83183        0.97735
H         -3.40086        5.60817        0.55980
H         -1.82582        4.80283        0.59400
H         -3.01536        4.36568       -0.62781
H         -5.16892        3.44144        0.02766
H         -5.59131        3.89769        1.66519
H         -4.14909        0.55234       -0.08099
C         -5.23059        1.74055        1.39269
C         -3.87195       -0.39525        1.84298
H         -3.30259        3.86138        2.38557
H         -5.40761        1.61899        2.47025
H         -6.16033        1.41401        0.90235
H         -4.74661       -1.04865        1.80456
H         -3.00368       -0.97489        1.52325
H         -3.71251       -0.11369        2.88548
C         -1.18668       -3.83936       -0.22099
C         -1.02192       -3.36782        1.10685
C         -0.60600       -2.06023        1.29219
C         -0.42249       -1.22053        0.22563
C         -0.67253       -1.64347       -1.05194
C         -1.10042       -2.93358       -1.30906
O         -1.39845       -5.22284       -0.46231
C         -1.24922       -4.26122        2.33608
H         -0.40893       -1.68001        2.27883
H         -0.51589       -0.94165       -1.85234
C         -1.43756       -3.32863       -2.75486
C          4.55944        0.67323       -0.56515
C          4.01456       -0.51460       -0.01383
C          2.66253       -0.53657        0.28407
C          1.88373        0.57966        0.12375
C          2.42741        1.76202       -0.30299
C          3.77208        1.85211       -0.62466
O          5.87795        0.67111       -1.09318
C          4.84850       -1.78302        0.22512
H          2.19015       -1.43996        0.63011
H          1.77625        2.61294       -0.40551
C          4.34097        3.20498       -1.07989
C          0.06288       -4.97740        2.69048
C         -1.69390       -3.41789        3.55307
C         -2.36335       -5.29072        2.07408
C         -1.98591       -2.11101       -3.53506
C         -0.16438       -3.82787       -3.45444
C         -2.52833       -4.41398       -2.79519
C         -0.20145       -5.96441       -0.66213
H          0.85022       -4.25495        2.90492
H         -0.06262       -5.61095        3.56816
H          0.40393       -5.60405        1.86994
H         -0.89819       -2.76227        3.90356
H         -2.56018       -2.80537        3.30555
H         -1.96856       -4.06109        4.38880
H         -2.56818       -5.88217        2.96610
H         -3.28547       -4.79105        1.77896
H         -2.08821       -5.97954        1.27926
H         -2.81372       -1.64762       -2.99890
H         -1.21893       -1.35535       -3.69737
H         -2.34975       -2.41222       -4.51701
H         -0.36974       -4.10474       -4.48814
H          0.60162       -3.05266       -3.45816
H          0.24828       -4.69767       -2.94875
H         -3.42001       -4.08105       -2.26504
H         -2.81095       -4.64762       -3.82135
H         -2.18901       -5.33582       -2.32969
H          0.66942       -5.31411       -0.56958
H         -0.13911       -6.76284        0.07714
H         -0.21232       -6.41827       -1.65289
C          5.94990        0.31022       -2.46701
C          6.30765       -1.43277        0.56839
C          4.28592       -2.58755        1.41982
C          4.79512       -2.66912       -1.02883
C          5.82065        3.35006       -0.68054
C          4.18686        3.33076       -2.60333
C          3.57881        4.37110       -0.41032
H          6.80111       -0.93049       -0.25975
H          6.34996       -0.77099        1.43282
H          6.88219       -2.32954        0.79904
H          3.31068       -3.01702        1.19488
H          4.94761       -3.41514        1.67456
H          4.18736       -1.95449        2.30130
H          5.36929       -3.58409       -0.88524
H          3.76711       -2.94812       -1.25957
H          5.19912       -2.15132       -1.89540
H          6.20381        4.33466       -0.94746
H          5.94261        3.21831        0.39404
H          6.44133        2.61013       -1.17944
H          4.56571        4.28932       -2.95684
H          4.72929        2.54334       -3.12088
H          3.13860        3.25408       -2.89132
H          3.55659        4.24873        0.67225
H          2.55329        4.44182       -0.76963
H          4.06001        5.32399       -0.62957
H          6.57261       -0.57694       -2.58080
H          4.95250        0.10770       -2.85942
H          6.40629        1.12091       -3.03474
