111
-148.55689612
P         -2.56388        2.06282        0.81654
P          0.13837        0.41137        0.49243
C         -1.47440        1.81674        2.24492
C         -0.28714        1.13302        2.09063
C         -3.38480        3.72078        0.83295
C         -2.78631        4.63752       -0.21154
C         -1.83597        2.29559        3.48776
H         -2.77517        2.81030        3.60804
C         -0.99951        2.09690        4.57272
H         -1.28107        2.47094        5.54352
C          0.19282        1.41704        4.41397
H          0.84266        1.26018        5.25911
C          0.54773        0.92898        3.16922
H          1.46714        0.38153        3.03103
Pd        -1.30342        1.43616       -0.99934
Cl        -2.92082        2.10272       -2.40197
Cl         0.05999        0.77004       -2.66332
C         -4.86804        3.37166        0.60599
C         -4.04667        0.95743        0.82464
H         -2.90172        4.21374       -1.21029
H         -3.27266        5.61584       -0.21040
H         -1.71758        4.78880       -0.04164
H         -5.08625        3.44485       -0.46839
H         -5.51667        4.11732        1.09043
H         -4.12791        0.55023       -0.19222
C         -5.20268        1.93597        1.10291
C         -3.90007       -0.15561        1.83911
H         -3.23820        4.13378        1.83897
H         -5.39492        1.95790        2.18448
H         -6.13377        1.56856        0.64509
H         -3.03662       -0.78430        1.61180
H         -3.75464        0.25031        2.84194
H         -4.78639       -0.79382        1.86351
C         -1.18799       -3.94301        0.27113
C         -1.06227       -3.31550        1.53967
C         -0.63655       -1.99792        1.58020
C         -0.42094       -1.28937        0.42748
C         -0.66599       -1.85365       -0.79604
C         -1.09026       -3.16460       -0.91242
O         -1.32563       -5.35212        0.18310
C         -1.37859       -4.01122        2.87447
H         -0.46138       -1.50980        2.52321
H         -0.50986       -1.25001       -1.67362
C         -1.44279       -3.67789       -2.31810
C          4.52384        0.76356       -0.68325
C          3.79911       -0.41835       -0.98021
C          2.46789       -0.47912       -0.60689
C          1.87578        0.54253        0.08775
C          2.59661        1.64653        0.46093
C          3.93686        1.76773        0.12968
O          5.82007        0.95817       -1.23013
C          4.41148       -1.60803       -1.73565
H          1.86449       -1.32888       -0.87279
H          2.09157        2.42067        1.01239
C          4.72339        2.99000        0.62930
C         -2.24838       -3.08020        3.74811
C         -2.17275       -5.31485        2.68170
C         -0.06555       -4.31445        3.61465
C         -2.34062       -2.64042       -3.02954
C         -0.15122       -3.86702       -3.13122
C         -2.22616       -5.00107       -2.27871
C         -0.07698       -6.02041        0.11315
H         -3.16293       -2.80548        3.22373
H         -2.53139       -3.57352        4.67762
H         -1.72347       -2.16432        4.01438
H         -2.46894       -5.73999        3.64040
H         -3.07384       -5.13286        2.09705
H         -1.58164       -6.06299        2.15886
H         -0.26087       -4.79007        4.57542
H          0.56844       -4.98112        3.03310
H          0.49659       -3.39988        3.80108
H         -2.67187       -3.01262       -3.99852
H         -3.22555       -2.42358       -2.43193
H         -1.81648       -1.70257       -3.20551
H          0.39909       -2.93002       -3.21152
H          0.50469       -4.59884       -2.66339
H         -0.37379       -4.21203       -4.14053
H         -3.11040       -4.90529       -1.64955
H         -2.54872       -5.29669       -3.27676
H         -1.61736       -5.80774       -1.87733
H         -0.24787       -7.09323        0.02169
H          0.48695       -5.67023       -0.75004
H          0.50289       -5.82396        1.01353
C          5.82154        1.60515       -2.49659
C          5.91347       -1.74830       -1.43002
C          3.73882       -2.93268       -1.30571
C          4.19059       -1.41505       -3.24373
C          6.20433        2.63964        0.86305
C          4.60395        4.12674       -0.39693
C          4.16059        3.48440        1.98151
H          6.47209       -0.88272       -1.77686
H          6.07918       -1.84446       -0.35752
H          6.33228       -2.62784       -1.91839
H          4.25543       -3.78784       -1.74090
H          3.76017       -3.04472       -0.22202
H          2.70234       -2.98588       -1.63525
H          4.66535       -0.50327       -3.59812
H          4.60116       -2.25106       -3.80931
H          3.12699       -1.34308       -3.47031
H          6.69700        2.35842       -0.06432
H          6.74679        3.48793        1.27974
H          6.29612        1.80443        1.55657
H          3.56031        4.40195       -0.54723
H          5.14237        5.01308       -0.06235
H          5.00990        3.83147       -1.36140
H          4.11408        2.66927        2.70326
H          3.16185        3.90474        1.87383
H          4.79281        4.26683        2.40072
H          6.27854        0.95308       -3.24069
H          4.80224        1.84615       -2.80117
H          6.41040        2.52043       -2.43874
