111
-148.55422005
P         -1.58000        2.71989        0.89449
P         -0.53217       -0.22487        0.41449
C         -1.31218        1.61438        2.30840
C         -0.93794        0.30482        2.09253
C         -0.35565        4.10641        0.91667
C          0.57594        4.02052       -0.27372
C         -1.45637        2.08469        3.59815
H         -1.70789        3.11975        3.76179
C         -1.25314        1.23267        4.66985
H         -1.36954        1.59884        5.67683
C         -0.89604       -0.08381        4.45061
H         -0.73296       -0.74606        5.28491
C         -0.72744       -0.54593        3.15797
H         -0.41447       -1.56081        2.97252
Pd        -1.61864        1.31492       -0.94409
Cl        -2.84641        2.84566       -2.02183
Cl        -1.42993       -0.17131       -2.61838
C         -1.24201        5.36785        0.93597
C         -3.15858        3.68233        1.02418
H          0.01090        4.04337       -1.20779
H          1.28158        4.85437       -0.29035
H          1.15232        3.09351       -0.26369
H         -1.31671        5.75973       -0.08765
H         -0.76007        6.16570        1.52091
H         -3.55478        3.74547        0.00262
C         -2.66977        5.06988        1.47611
C         -4.17527        3.02862        1.93591
H          0.19790        4.00815        1.85949
H         -2.66547        5.10640        2.57404
H         -3.38082        5.84791        1.15858
H         -4.40856        2.01435        1.60418
H         -3.80340        2.96053        2.95837
H         -5.10706        3.59792        1.96541
C         -0.64704       -4.75257       -0.06028
C         -1.65215       -3.96189       -0.67451
C         -1.61626       -2.59019       -0.48461
C         -0.59024       -2.00024        0.20514
C          0.44536       -2.74898        0.70130
C          0.46442       -4.12658        0.55921
O         -0.76648       -6.16779       -0.03952
C         -2.77001       -4.56796       -1.53811
H         -2.38524       -1.95653       -0.89081
H          1.24763       -2.23529        1.20325
C          1.66844       -4.91838        1.09297
C          3.64446        1.33972       -0.52509
C          3.16923        1.35312        0.81116
C          1.91230        0.83258        1.06638
C          1.12021        0.36947        0.04920
C          1.53540        0.44528       -1.25351
C          2.77399        0.96746       -1.58113
O          4.99748        1.67326       -0.79929
C          4.00199        1.90878        1.97636
H          1.53070        0.78594        2.07085
H          0.85350        0.11583       -2.01749
C          3.14331        1.13289       -3.06349
C         -2.28591       -5.83850       -2.26057
C         -3.98149       -4.89206       -0.65141
C         -3.21094       -3.56997       -2.63371
C          2.95174       -4.05697        1.05138
C          1.40134       -5.32920        2.54883
C          1.93629       -6.16517        0.23057
C         -1.48901       -6.67241        1.07638
H         -3.05578       -6.22895       -2.92562
H         -1.39871       -5.62612       -2.85619
H         -2.03244       -6.62487       -1.55404
H         -4.35251       -3.99187       -0.16202
H         -4.79440       -5.31541       -1.24081
H         -3.72151       -5.60738        0.12523
H         -3.90299       -4.04095       -3.33132
H         -3.72179       -2.70606       -2.21156
H         -2.35201       -3.21446       -3.20227
H          3.10724       -3.64014        0.05655
H          2.90969       -3.23545        1.76514
H          3.82716       -4.65471        1.30426
H          2.24496       -5.88355        2.95929
H          1.23808       -4.45104        3.17323
H          0.51748       -5.95794        2.62483
H          2.82819       -6.69185        0.56912
H          1.10483       -6.86428        0.27553
H          2.08218       -5.88598       -0.81237
H         -0.85766       -7.35997        1.63898
H         -1.80628       -5.85544        1.72566
H         -2.36384       -7.22133        0.72842
C          5.87731        0.55640       -0.81247
C          4.89062        0.79161        2.54329
C          4.86774        3.09551        1.51608
C          3.08562        2.43070        3.10669
C          1.87881        1.40976       -3.90974
C          4.08849        2.33037       -3.26979
C          3.80211       -0.15839       -3.57076
H          5.57334        0.41017        1.78796
H          5.48483        1.15297        3.38222
H          4.28351       -0.04300        2.89344
H          5.41194        3.53176        2.35332
H          5.59926        2.78730        0.77299
H          4.24721        3.87340        1.07221
H          3.66973        2.93570        3.87567
H          2.35852        3.14305        2.71850
H          2.54634        1.62091        3.59605
H          1.22249        0.54202       -3.95266
H          1.31322        2.24620       -3.49983
H          2.14663        1.65818       -4.93632
H          4.29712        2.48743       -4.32773
H          3.64376        3.24231       -2.87263
H          5.03967        2.17708       -2.76638
H          4.70773       -0.38448       -3.01282
H          4.06729       -0.07365       -4.62428
H          3.12482       -1.00492       -3.45992
H          6.67569        0.71356       -0.08733
H          5.33589       -0.35780       -0.56565
H          6.32879        0.45645       -1.79928
