45
-71.81587586
C          2.32606        1.19946        2.43033
P          1.51551        0.86152        0.83151
P         -1.02341        0.21812       -0.88870
C         -0.42395       -0.26087       -2.54437
Cl         1.43683       -1.95231        2.26225
H          1.58037        1.47046        3.17224
H          0.63398       -0.03209       -2.63418
Cl        -1.14283       -2.78149        0.25884
C          0.48193        2.22475        0.25675
C         -0.61839        1.93643       -0.52021
C         -1.40685        2.95409       -1.01622
C         -1.08667        4.26986       -0.73140
C          0.02047        4.55990        0.04272
C          0.80989        3.53570        0.53563
H         -2.26659        2.71164       -1.62006
H         -1.70060        5.06782       -1.11547
H          0.27215        5.58479        0.26062
H          1.68302        3.75093        1.12969
Pd         0.11612       -0.98900        0.72468
H         -0.96908        0.28569       -3.30858
H          3.03685        2.01395        2.32444
H         -0.56504       -1.32691       -2.69783
C         -5.45213       -0.56284       -0.19406
C         -4.82285       -1.14283       -1.27783
C         -3.47891       -0.90583       -1.50414
C         -2.77585       -0.08895       -0.64823
C         -3.39703        0.48584        0.43751
C         -4.74140        0.25113        0.66551
H         -6.49875       -0.74911       -0.01651
H         -5.37615       -1.78381       -1.94442
H         -2.97509       -1.36318       -2.33999
H         -2.82602        1.11463        1.10273
H         -5.23065        0.70052        1.51399
C          4.42913       -0.37544       -2.42816
C          4.23469       -1.18907       -1.32897
C          3.35661       -0.80074       -0.33410
C          2.68761        0.39627       -0.44239
C          2.86955        1.20662       -1.53911
C          3.74671        0.82083       -2.53655
H          5.11214       -0.67680       -3.20552
H          4.75940       -2.12686       -1.24894
H          3.16245       -1.43383        0.51718
H          2.32281        2.13286       -1.61220
H          3.89521        1.45221       -3.39712
H          2.85439        0.31293        2.76921
