111
-148.55638275
P         -1.74610        2.76177        0.55071
P         -0.54539       -0.15623        0.45313
C         -1.65180        1.77239        2.07105
C         -1.20106        0.47062        2.01083
C         -0.56806        4.18437        0.63274
C          0.51913        4.03747       -0.41103
C         -1.99806        2.32247        3.28884
H         -2.30843        3.35326        3.33790
C         -1.91906        1.55632        4.43901
H         -2.19397        1.98452        5.38913
C         -1.48254        0.24695        4.37226
H         -1.41574       -0.34722        5.26873
C         -1.11109       -0.29452        3.15470
H         -0.73173       -1.30207        3.08896
Pd        -1.44160        1.23413       -1.16237
Cl        -2.53729        2.64706       -2.51021
Cl        -0.92340       -0.34802       -2.67308
C         -1.47617        5.41448        0.43296
C         -3.34790        3.67712        0.37811
H          0.08649        3.98147       -1.41207
H          1.20798        4.88527       -0.39322
H          1.10164        3.12667       -0.25659
H         -1.41280        5.73046       -0.61732
H         -1.10054        6.26694        1.01880
H         -3.59302        3.65216       -0.69142
C         -2.95977        5.10915        0.78751
C         -4.47072        3.05780        1.18316
H         -0.14817        4.17290        1.64697
H         -3.11325        5.22466        1.86917
H         -3.63544        5.83841        0.31482
H         -4.63054        2.01483        0.90042
H         -4.24919        3.07660        2.25034
H         -5.40965        3.59626        1.03589
C         -0.69641       -4.66519       -0.13034
C          0.39265       -4.07467        0.56044
C          0.40063       -2.69834        0.71514
C         -0.64973       -1.93195        0.28200
C         -1.75519       -2.50836       -0.28529
C         -1.82571       -3.87890       -0.47546
O         -0.63806       -6.03175       -0.51297
C          1.57805       -4.89034        1.09964
H          1.24469       -2.19878        1.15936
H         -2.55561       -1.86426       -0.60646
C         -3.09391       -4.48075       -1.10030
C          3.78514        1.20743        0.05883
C          3.07119        1.47121        1.25819
C          1.76807        1.01413        1.35827
C          1.15454        0.39113        0.30326
C          1.79516        0.25512       -0.89922
C          3.09758        0.68932       -1.07077
O          5.19174        1.38513        0.01368
C          3.65428        2.24870        2.44987
H          1.21612        1.14009        2.27342
H          1.24815       -0.17874       -1.71840
C          3.69752        0.61224       -2.48424
C          1.13681       -6.30435        1.51895
C          2.66964       -4.97173        0.02144
C          2.17578       -4.21577        2.35576
C         -2.95026       -4.48422       -2.62996
C         -3.34481       -5.90983       -0.58573
C         -4.33760       -3.64340       -0.72473
C         -0.04691       -6.25008       -1.78807
H          0.77561       -6.87673        0.66840
H          1.96462       -6.85841        1.96081
H          0.33275       -6.25341        2.25235
H          3.01130       -3.97484       -0.25678
H          3.53043       -5.53624        0.37896
H          2.29975       -5.45694       -0.87861
H          2.66225       -3.27168        2.11486
H          1.40123       -4.02351        3.09779
H          2.92915       -4.85453        2.81626
H         -2.10035       -5.08476       -2.94486
H         -3.84328       -4.88864       -3.10563
H         -2.79645       -3.47218       -3.00389
H         -4.27839       -6.31013       -0.98031
H         -2.54664       -6.58519       -0.88311
H         -3.40365       -5.92102        0.50210
H         -4.31841       -2.66041       -1.19283
H         -5.25072       -4.13700       -1.05667
H         -4.40309       -3.50938        0.35470
H         -0.75876       -6.75694       -2.43937
H          0.24641       -5.30095       -2.23855
H          0.83008       -6.88824       -1.68116
C          5.90223        0.21886        0.39461
C          4.94257        3.00466        2.08135
C          2.63257        3.30567        2.92477
C          3.94266        1.27256        3.60210
C          2.68565        1.18873       -3.50005
C          4.98936        1.43656       -2.61858
C          3.98555       -0.85669       -2.83564
H          4.77561        3.65108        1.22040
H          5.28612        3.62322        2.91015
H          5.74557        2.31568        1.83018
H          2.36575        3.97503        2.10774
H          1.71840        2.84843        3.29964
H          3.04658        3.91055        3.73106
H          4.33709        1.80014        4.47014
H          3.03520        0.75311        3.90863
H          4.67201        0.52069        3.30635
H          2.40005        2.20351       -3.22436
H          3.11499        1.22037       -4.50099
H          1.77922        0.58844       -3.55575
H          5.34476        1.44527       -3.64870
H          4.82148        2.46709       -2.30754
H          5.78425        1.02694       -1.99982
H          4.70771       -1.29090       -2.14658
H          4.38854       -0.94406       -3.84425
H          3.07619       -1.45480       -2.78449
H          5.65867       -0.04778        1.42189
H          5.63370       -0.61165       -0.25661
H          6.97296        0.40808        0.31561
