58
-89.86242072
P          1.76599       -0.09566        0.81291
C          1.87698        1.70009        0.81646
C          0.81811        2.45354        0.36675
C          0.88483        3.83292        0.39716
C          2.01659        4.45343        0.88661
C          3.07359        3.69632        1.35261
C          2.99975        2.31487        1.32257
H          3.81154        1.71211        1.69801
H         -0.07185        1.96301        0.01833
C          3.29727       -0.85109        0.24855
C          4.21949       -0.11091       -0.45577
C          5.37579       -0.71066       -0.92079
C          5.59697       -2.05285       -0.68460
C          4.66226       -2.79662        0.00788
C          3.50623       -2.19350        0.47098
H          2.75700       -2.77110        0.98883
H          4.02403        0.92977       -0.65678
C          1.39692       -0.62447        2.54233
C         -0.07906       -0.86149        2.82186
C         -0.98050        0.30038        2.41085
P         -1.61497        0.07639        0.69566
C         -2.87687       -1.20168        0.74303
C         -2.53854       -2.53088        0.62904
C         -3.52624       -3.49800        0.67554
C         -4.84632       -3.12715        0.83908
C         -5.18144       -1.79264        0.95537
C         -4.19132       -0.82754        0.90757
H         -4.43699        0.21905        0.99354
H         -1.50648       -2.80912        0.48861
C         -2.32771        1.59443        0.04533
C         -2.52858        1.69522       -1.31170
C         -3.05184        2.85590       -1.84944
C         -3.37414        3.91074       -1.01890
C         -3.17923        3.80419        0.34420
C         -2.65586        2.64051        0.87832
H         -2.49875        2.54798        1.94061
H         -2.27599        0.85718       -1.94071
Pd         0.09290       -0.63346       -0.71116
Cl         1.70083       -1.17797       -2.18395
Cl        -1.52599       -1.28312       -2.13604
H         -1.86483        0.37503        3.04871
H         -0.45158        1.25220        2.48146
H         -0.41234       -1.76990        2.30144
H         -0.21222       -1.08293        3.89259
H          1.98909       -1.51640        2.75799
H          1.78648        0.16795        3.18521
H          0.05129        4.41926        0.04690
H          3.95407        4.18002        1.74259
H          6.09820       -0.13236       -1.47303
H          4.82801       -3.84729        0.18082
H         -3.26505       -4.53911        0.57975
H         -6.21160       -1.50231        1.08084
H         -3.20713        2.93547       -2.91280
H         -3.43331        4.62706        0.99202
H          2.07252        5.52952        0.91127
H          6.49588       -2.52266       -1.04924
H         -5.61651       -3.88037        0.87339
H         -3.78139        4.81783       -1.43492
