87
-129.18524375
P         -1.54302       -0.30648       -0.38389
P          1.70550        0.38544        0.09862
C         -1.18097        0.92655       -1.63837
C          1.57051       -0.72302       -1.32656
C         -0.11063        0.72691       -2.50102
C          0.16253        1.70238       -3.48090
C         -0.64898        2.82207       -3.56233
C         -1.70806        2.99908       -2.69697
C         -1.97139        2.04549       -1.73364
C          2.30687       -1.88128       -1.24126
C          2.20567       -2.85263       -2.21754
C          1.34478       -2.66556       -3.27620
C          0.58356       -1.51450       -3.38071
C          0.70649       -0.51143       -2.39975
Cl         1.12039        0.18833        3.23155
Cl        -1.54609       -1.59191        2.59371
H         -2.32612        3.87892       -2.76957
H         -2.80122        2.17141       -1.05834
H          2.96158       -2.03212       -0.39863
H          2.78664       -3.75731       -2.14356
H         -0.43754        3.56542       -4.31214
H          1.24871       -3.42580       -4.03282
C         -2.26526       -4.33567       -2.34759
C         -1.36837       -4.24832       -1.29164
C         -1.17152       -3.01139       -0.68987
C         -1.85592       -1.90383       -1.13293
C         -2.74915       -1.99907       -2.17398
C         -2.95726       -3.22258       -2.78340
H         -2.41515       -5.28662       -2.82976
C         -0.59240       -5.43668       -0.84501
H         -0.47112       -2.91633        0.12270
H         -3.26599       -1.11478       -2.51282
H         -3.65131       -3.30436       -3.60376
C         -5.11664        1.04054        2.10225
C         -5.19424       -0.12758        1.36976
C         -4.11528       -0.53832        0.61010
C         -2.97100        0.22345        0.58340
C         -2.89055        1.38539        1.31557
C         -3.96127        1.80985        2.09190
H         -5.95652        1.36256        2.69397
H         -6.09336       -0.72128        1.39306
H         -4.15775       -1.45416        0.04385
H         -1.98886        1.97252        1.28438
C         -3.86906        3.07520        2.86982
C          5.71139       -0.23912        2.17054
C          5.52089        0.85283        1.34710
C          4.30004        1.04464        0.72775
C          3.28096        0.14404        0.93391
C          3.46985       -0.94558        1.75247
C          4.68664       -1.14870        2.39201
H          6.66212       -0.39218        2.65220
H          6.32228        1.55542        1.18714
H          4.13631        1.89439        0.08527
H          2.66052       -1.63853        1.91358
C          4.88724       -2.33470        3.26838
C          0.86805        4.79328       -0.61870
C          1.72986        4.12016       -1.46262
C          2.00329        2.78245       -1.24625
C          1.40939        2.13174       -0.19100
C          0.58015        2.80886        0.67356
C          0.28950        4.15167        0.46780
H          0.63993        5.83039       -0.79643
H          2.17823        4.63265       -2.29789
H          2.65918        2.23641       -1.90532
H          0.18271        2.29866        1.53435
C         -0.65387        4.86897        1.36752
Pd        -0.05495       -0.40382        1.41452
C          1.30409        1.55776       -4.42622
C         -0.35450       -1.37064       -4.52899
H          0.95042        1.30628       -5.42686
H          1.87170        2.48687       -4.49542
H          1.99263        0.77523       -4.10540
H          0.18455       -1.11747       -5.44265
H         -0.89632       -2.30079       -4.70602
H         -1.09503       -0.59142       -4.34595
H         -1.15637       -6.35735       -1.00098
H          0.34454       -5.51636       -1.39814
H         -0.35140       -5.37121        0.21700
H         -4.00720        3.94074        2.22033
H         -4.62864        3.11629        3.65166
H         -2.89403        3.16588        3.35090
H          3.97989       -2.56273        3.82965
H          5.14820       -3.21375        2.67742
H          5.68767       -2.16290        3.98935
H         -1.67454        4.80304        0.98796
H         -0.63950        4.44332        2.37190
H         -0.39262        5.92475        1.45134
