105
-153.06559641
Cl         0.01962        1.85531        3.11502
Pd        -0.47530        1.33812        0.98051
P         -1.08636        0.50463       -1.14329
N         -0.69403       -0.99545       -1.98111
C          0.20305       -2.00321       -1.63287
C          0.32452       -2.48579       -0.30601
C          1.27385       -3.48918       -0.02119
C          1.38041       -4.01170        1.39199
C          2.19910       -5.30395        1.53826
C          3.47340       -5.24508        0.69114
C          3.12614       -5.05922       -0.79322
C          2.07622       -4.00588       -1.04242
C          1.89887       -3.55343       -2.34393
C          0.97851       -2.58160       -2.63679
H          0.86680       -2.22742       -3.64673
H          2.50847       -3.96965       -3.12810
H          4.02723       -4.80297       -1.36521
H          4.09479       -4.40573        1.02801
H          2.44174       -5.49581        2.59300
H          1.82410       -3.22670        2.01514
C         -0.67728       -2.11834        0.72342
C         -0.25596       -1.52735        1.94531
C         -1.18892       -1.39590        2.97813
C         -2.48584       -1.80826        2.81529
C         -2.91956       -2.37619        1.62345
C         -4.35292       -2.84337        1.53950
C         -4.81586       -3.21085        0.12055
C         -3.73486       -4.00691       -0.61495
C         -2.43668       -3.19305       -0.71905
C         -2.01458       -2.53268        0.57136
H         -1.62087       -3.83454       -1.07499
H         -4.08570       -4.31414       -1.61036
H         -5.03493       -2.29579       -0.44311
H         -5.00300       -2.06736        1.96260
H         -3.18930       -1.69400        3.62263
H         -0.87926       -0.93716        3.90070
N          1.03931       -1.02026        2.12437
P          1.59018        0.19769        0.97555
C          2.61081       -0.36232       -0.37562
C          2.42652        0.20432       -1.61188
C          3.25189       -0.15807       -2.66041
C          4.26905       -1.08409       -2.46849
C          4.45980       -1.61666       -1.19984
C          3.63164       -1.25381       -0.15283
H          3.77425       -1.65953        0.83613
H          5.25854       -2.31997       -1.03763
C          5.16136       -1.47359       -3.59459
H          3.10720        0.27434       -3.63556
H          1.63235        0.91824       -1.74919
C          2.52997        1.50622        1.77156
C          3.25755        1.24274        2.90699
C          3.98460        2.25579        3.50558
C          3.99514        3.53395        2.96315
C          3.25517        3.77799        1.81396
C          2.52954        2.76396        1.21564
H          1.95824        2.94921        0.31914
H          3.24749        4.76847        1.39208
C          4.75157        4.63252        3.62531
H          4.54738        2.05937        4.40215
H          3.25886        0.24698        3.31978
H          1.19415       -0.58464        3.02430
H         -0.96340       -0.89702       -2.95196
C         -0.61079        1.88735       -2.19596
C         -0.88674        3.17490       -1.80241
C         -0.50937        4.24031       -2.59686
C          0.14226        4.02446       -3.80302
C          0.41418        2.71896       -4.18803
C          0.03244        1.65635       -3.38987
H          0.25194        0.64579       -3.69047
H          0.93026        2.53979       -5.11582
C          0.57725        5.17173       -4.64691
H         -0.71840        5.24874       -2.28295
H         -1.40257        3.34049       -0.87159
C         -2.88297        0.52351       -1.08156
C         -3.56265        0.77017       -2.25091
C         -4.94629        0.78198       -2.25523
C         -5.65787        0.55799       -1.08466
C         -4.95379        0.30258        0.08334
C         -3.57175        0.27602        0.08046
H         -3.02345        0.07641        0.98679
H         -5.49554        0.12611        0.99663
C         -7.14672        0.54707       -1.08779
H         -5.48187        0.96888       -3.17026
H         -3.00742        0.95386       -3.15754
Cl        -2.31220        2.63547        1.01245
H          2.77334       -6.00921       -1.21208
H          1.59030       -6.15837        1.21690
H          4.08568       -6.14544        0.84216
H          0.36839       -4.16321        1.78820
H         -3.53697       -4.93914       -0.07115
H         -2.55356       -2.41450       -1.48174
H         -4.47119       -3.71134        2.19918
H         -5.76124       -3.77091        0.14945
H          6.03050       -0.81644       -3.64578
H          5.51893       -2.49752       -3.47649
H          4.63741       -1.41509       -4.54970
H          4.12625        5.14586        4.35695
H          5.63088        4.24834        4.14424
H          5.09299        5.37003        2.89760
H         -0.09782        6.02127       -4.53451
H          1.57976        5.49913       -4.36812
H          0.59337        4.89992       -5.70330
H         -7.54393        0.91392       -0.14033
H         -7.54419        1.18192       -1.88085
H         -7.52614       -0.46385       -1.24325
