105
-153.05833221
Cl         0.15594        2.47683        2.92564
Pd        -0.19582        1.59317        0.88024
P         -0.75743        0.56415       -1.16729
N          0.33240       -0.70464       -1.70119
C          0.55531       -2.06133       -1.44790
C          0.09462       -2.76331       -0.30587
C          0.48540       -4.10449       -0.10863
C          0.12366       -4.79454        1.18565
C          0.16105       -6.32682        1.09478
C          1.48320       -6.79484        0.47897
C          1.67387       -6.20786       -0.92958
C          1.26501       -4.76021       -1.06420
C          1.68367       -4.06136       -2.18848
C          1.35268       -2.74368       -2.36642
H          1.70360       -2.21139       -3.23365
H          2.28876       -4.56712       -2.92192
H          2.72167       -6.30747       -1.24067
H          2.31376       -6.47686        1.12178
H          0.00354       -6.78403        2.08193
H          0.82111       -4.45481        1.96070
C         -0.67282       -2.08729        0.76716
C          0.05021       -1.33290        1.72753
C         -0.63989       -0.80449        2.82178
C         -1.98610       -1.01755        2.97043
C         -2.70307       -1.78946        2.06236
C         -4.16635       -2.04253        2.34721
C         -4.89351       -2.94939        1.33499
C         -3.94622       -3.97707        0.70649
C         -2.77414       -3.26132        0.02225
C         -2.04145       -2.34008        0.96259
H         -2.07976       -3.98748       -0.41661
H         -4.47974       -4.62728       -0.00122
H         -5.32742       -2.33391        0.53835
H         -4.67665       -1.07382        2.41981
H         -2.50388       -0.59459        3.81458
H         -0.10108       -0.20465        3.53328
N          1.43936       -1.11493        1.55660
P          1.88534        0.54192        1.14676
C          2.64965        0.66613       -0.46277
C          2.39528        1.76948       -1.24315
C          2.86563        1.80887       -2.54226
C          3.58965        0.74603       -3.06407
C          3.86752       -0.34130       -2.24617
C          3.39288       -0.38339       -0.94711
H          3.55609       -1.24806       -0.32333
H          4.44038       -1.16407       -2.63856
C          4.08842        0.78964       -4.46615
H          2.65554        2.66104       -3.16603
H          1.80359        2.58114       -0.84973
C          2.84130        1.41003        2.39025
C          2.84848        0.96891        3.69193
C          3.56294        1.66463        4.65049
C          4.27723        2.80534        4.30995
C          4.24664        3.24270        2.99272
C          3.53098        2.54551        2.03610
H          3.50443        2.88543        1.01320
H          4.78220        4.13642        2.72152
C          5.02135        3.57226        5.34706
H          3.56358        1.32852        5.67331
H          2.28361        0.09189        3.96113
H          2.06637       -1.36903        2.31433
H          1.12736       -0.19075       -2.06410
C         -0.60234        1.84179       -2.42649
C         -0.84028        3.16824       -2.15727
C         -0.67267        4.11751       -3.14663
C         -0.27821        3.74433       -4.42397
C         -0.05087        2.40017       -4.68426
C         -0.21784        1.45374       -3.68907
H         -0.03729        0.41021       -3.89108
H          0.26446        2.09935       -5.66871
C         -0.06463        4.76913       -5.48298
H         -0.84861        5.15777       -2.93195
H         -1.16958        3.45584       -1.17427
C         -2.44553       -0.01812       -1.29809
C         -2.72633       -0.83535       -2.36826
C         -4.02592       -1.25591       -2.59484
C         -5.05128       -0.86244       -1.74624
C         -4.75105       -0.02230       -0.68206
C         -3.45416        0.40167       -0.46460
H         -3.23096        1.09090        0.33062
H         -5.54214        0.30971       -0.03167
C         -6.44837       -1.31268       -1.99687
H         -4.24999       -1.89613       -3.43085
H         -1.92395       -1.14094       -3.02169
Cl        -2.03778        2.87301        0.71553
H          1.09815       -6.79685       -1.65360
H         -0.67329       -6.67346        0.47207
H          1.53372       -7.89263        0.45541
H         -0.86411       -4.46171        1.52377
H         -3.55955       -4.64224        1.48862
H         -3.14849       -2.67579       -0.82097
H         -4.24250       -2.48418        3.34823
H         -5.74906       -3.45125        1.80823
H          3.40632        1.34933       -5.10793
H          5.06698        1.26913       -4.51481
H          4.18357       -0.21454       -4.88172
H          5.88374        4.08296        4.91635
H          4.37904        4.32490        5.80622
H          5.38698        2.91440        6.13673
H         -0.26976        4.36049       -6.47344
H         -0.72079        5.62840       -5.33752
H          0.96588        5.12685       -5.47307
H         -6.87665       -0.78808       -2.85200
H         -6.48136       -2.38286       -2.20652
H         -7.08805       -1.12408       -1.13359
