58
-89.86441380
P          1.82666       -0.44419        0.62997
C          1.56460        1.33557        0.73501
C          1.46341        1.99294        1.93948
C          1.24846        3.35864        1.96136
C          1.14559        4.06058        0.77700
C          1.26587        3.40150       -0.42957
C          1.48108        2.03565       -0.44723
H          1.58122        1.50532       -1.38155
H          1.56832        1.44649        2.86166
C          3.59216       -0.68231        0.36119
C          4.08684       -1.34229       -0.73944
C          5.44905       -1.51871       -0.88907
C          6.31434       -1.02669        0.06748
C          5.81883       -0.35781        1.16905
C          4.45319       -0.18608        1.31473
H          4.05329        0.33781        2.16881
H          3.40407       -1.69792       -1.49069
C          1.42760       -1.32443        2.20572
C         -0.04208       -1.62261        2.46741
C         -0.94946       -0.39838        2.42327
P         -1.58142       -0.10776        0.71894
C         -3.07190       -1.08979        0.51474
C         -2.99356       -2.44585        0.29452
C         -4.15260       -3.18570        0.14375
C         -5.38248       -2.56208        0.21728
C         -5.45676       -1.20129        0.43963
C         -4.29574       -0.46401        0.58889
H         -4.33681        0.60002        0.75931
H         -2.02819       -2.91997        0.22219
C         -1.92066        1.62423        0.38628
C         -2.07291        2.53653        1.40564
C         -2.33410        3.86133        1.10535
C         -2.44616        4.26120       -0.21199
C         -2.30599        3.33962       -1.23064
C         -2.04654        2.01633       -0.92648
H         -1.94916        1.27539       -1.70391
H         -1.98768        2.21305        2.43016
Pd         0.01885       -0.77431       -0.83166
Cl         1.51534       -1.34063       -2.39437
Cl        -1.73457       -1.03528       -2.22148
H         -1.83473       -0.52242        3.05248
H         -0.43095        0.49128        2.77901
H         -0.40324       -2.35952        1.73743
H         -0.13708       -2.12219        3.44434
H          2.00936       -2.24954        2.18429
H          1.84584       -0.72268        3.01400
H          1.16102        3.87472        2.90336
H          1.18722        3.94710       -1.35544
H          5.83408       -2.03424       -1.75358
H          6.49324        0.03033        1.91457
H         -4.09437       -4.24666       -0.03585
H         -6.41601       -0.71337        0.49441
H         -2.44666        4.58092        1.89956
H         -2.39907        3.64852       -2.25874
H          0.97161        5.12409        0.79435
H          7.37752       -1.16138       -0.04774
H         -6.28574       -3.13791        0.09784
H         -2.64622        5.29425       -0.44530
