171
-217.83880013
P         -1.46328        0.15948       -0.41883
P          1.65464       -0.74112        0.15612
C         -0.50581        1.05648       -1.65941
C          1.01541       -1.71071       -1.22957
C          0.35762        0.34423       -2.48349
C          1.13457        1.04058       -3.42865
C          0.98742        2.41410       -3.53834
C          0.11285        3.10290       -2.72360
C         -0.63143        2.41834       -1.78346
C          0.99101       -3.07314       -1.04347
C          0.43271       -3.89791       -2.00040
C         -0.12747       -3.34445       -3.13147
C         -0.14874       -1.97297       -3.32122
C          0.43915       -1.13369       -2.35575
Cl         0.90500       -1.37055        3.15378
Cl        -2.21346       -1.80649        2.22427
C         -0.82568       -1.42361       -4.52810
C          2.08939        0.31671       -4.31268
H          0.01510        4.17235       -2.81490
H         -1.30916        2.95061       -1.13926
H          1.38454       -3.48927       -0.12798
H          0.42133       -4.96576       -1.85488
H          1.56689        2.94580       -4.27382
H         -0.57742       -3.97982       -3.87568
C         -4.28898       -2.58400       -2.65971
C         -3.61385       -3.08911       -1.55581
C         -2.76931       -2.23205       -0.86377
C         -2.59144       -0.93786       -1.28180
C         -3.24799       -0.46234       -2.39077
C         -4.12242       -1.27717       -3.10049
H         -4.97534       -3.22444       -3.18207
H         -2.25614       -2.56380        0.01978
H         -3.05652        0.54657       -2.71178
C         -4.05121        3.11752        1.88804
C         -3.18402        2.30945        2.61109
C         -2.38679        1.41659        1.90812
C         -2.46645        1.32329        0.53838
C         -3.35142        2.11499       -0.15221
C         -4.15148        3.03959        0.50504
H         -4.66714        3.81531        2.42340
H         -1.71006        0.77723        2.44173
H         -3.41930        2.01805       -1.22168
C          5.59806       -2.25394        1.79941
C          4.90892       -1.24395        2.46089
C          3.68572       -0.84473        1.93925
C          3.17904       -1.43132        0.80722
C          3.88476       -2.40924        0.15094
C          5.10569       -2.85086        0.64358
H          6.54449       -2.57628        2.18847
H          3.12510       -0.05261        2.40891
H          3.49528       -2.81430       -0.76638
C          2.79048        3.63659       -0.04453
C          3.51776        2.70345       -0.77434
C          3.09692        1.38029       -0.73583
C          1.99182        1.01910       -0.00526
C          1.29227        1.95303        0.72334
C          1.68229        3.28591        0.71857
H          3.11108        4.66021       -0.05130
H          3.65803        0.61315       -1.24422
H          0.45146        1.64100        1.31699
Pd        -0.34023       -0.96794        1.33251
C         -5.29811       -4.75497       -0.73899
C         -3.82282       -4.54721       -1.12511
C         -2.94213       -4.91211        0.08680
C         -3.45185       -5.48087       -2.29205
H         -5.47522       -5.77896       -0.41060
H         -5.57993       -4.08577        0.07372
H         -5.95931       -4.55518       -1.58142
H         -1.88539       -4.77384       -0.14093
H         -3.19136       -4.29916        0.95266
H         -3.08556       -5.95468        0.36979
H         -4.07859       -5.29590       -3.16356
H         -2.41403       -5.33144       -2.58834
H         -3.57444       -6.52623       -2.00931
C         -4.83912       -1.71649       -5.48091
C         -4.94343       -0.74866       -4.28619
C         -4.44660        0.63676       -4.74595
C         -6.41418       -0.62632       -3.85024
H         -5.40058       -1.33853       -6.33523
H         -3.80277       -1.84056       -5.79203
H         -5.23733       -2.70015       -5.23657
H         -5.00736        0.97965       -5.61537
H         -4.57329        1.38285       -3.96205
H         -3.39314        0.60252       -5.02290
H         -6.81484       -1.59410       -3.54987
H         -6.50942        0.05186       -3.00240
H         -7.03257       -0.24287       -4.66162
C         -2.12886        1.41455        4.75029
C         -3.14995        2.39847        4.14375
C         -4.54331        2.05153        4.69971
C         -2.76375        3.82760        4.56489
H         -2.11791        1.48977        5.83740
H         -2.37649        0.38446        4.49457
H         -1.12018        1.62372        4.39657
H         -5.29844        2.74987        4.34089
H         -4.84049        1.04942        4.39109
H         -4.54841        2.08510        5.78902
H         -2.71244        3.91414        5.65008
H         -1.79021        4.09812        4.15891
H         -3.48926        4.55679        4.20636
C         -4.27644        4.74550       -1.32571
C         -5.09990        3.92450       -0.31513
C         -5.88754        4.89969        0.58031
C         -6.10261        3.03014       -1.06795
H         -3.53790        5.36006       -0.81111
H         -3.74516        4.09891       -2.02326
H         -4.91908        5.40555       -1.90800
H         -5.21471        5.56095        1.12612
H         -6.55049        5.52442       -0.01820
H         -6.50364        4.36106        1.30006
H         -6.67918        2.42514       -0.36852
H         -6.80045        3.63052       -1.65129
H         -5.59283        2.35318       -1.75221
C          6.80251       -1.12330        4.15887
C          5.45213       -0.53459        3.70859
C          4.44168       -0.68998        4.86078
C          5.64947        0.95971        3.38930
H          6.70767       -2.18202        4.39939
H          7.55861       -1.01061        3.38208
H          7.16824       -0.61363        5.05022
H          4.80790       -0.21140        5.76879
H          3.48201       -0.23933        4.61076
H          4.26738       -1.74314        5.07965
H          4.70915        1.43238        3.10714
H          6.04623        1.49458        4.25194
H          6.34747        1.08713        2.56206
C          6.20903       -3.45301       -1.52455
C          5.86356       -3.95341       -0.10982
C          4.97240       -5.20626       -0.20603
C          7.17187       -4.34055        0.60621
H          6.82108       -2.55255       -1.47546
H          6.76306       -4.20860       -2.08126
H          5.30926       -3.21478       -2.09079
H          4.05549       -4.99996       -0.75692
H          5.49206       -6.01667       -0.71685
H          4.69358       -5.55683        0.78748
H          7.68846       -5.13328        0.06517
H          7.85093       -3.49059        0.67090
H          6.97406       -4.70418        1.61441
C          5.99667        2.39042       -0.79011
C          4.81464        3.06150       -1.51401
C          5.05237        4.58357       -1.54578
C          4.74404        2.55482       -2.96557
H          5.88505        1.30649       -0.77571
H          6.94063        2.62430       -1.28195
H          6.05921        2.73216        0.24289
H          4.21845        5.09910       -2.02203
H          5.17949        4.98418       -0.54033
H          5.95474        4.82202       -2.10872
H          3.89503        2.99765       -3.48470
H          5.64807        2.81771       -3.51462
H          4.63838        1.47164       -3.00323
C          1.58474        5.69858        1.53679
C          0.94463        4.29867        1.60834
C          1.00444        3.81298        3.06872
C         -0.52108        4.41518        1.15807
H          2.62400        5.67230        1.86403
H          1.54932        6.09511        0.52223
H          1.05400        6.39877        2.18187
H          0.49978        2.85550        3.18726
H          2.03832        3.68638        3.38948
H          0.52957        4.52868        3.73909
H         -1.07078        5.11465        1.78748
H         -0.58147        4.77042        0.12991
H         -1.02419        3.45264        1.21358
H         -0.25017       -1.63602       -5.43019
H          2.54966       -0.52218       -3.78802
H         -0.96160       -0.34387       -4.45782
H         -1.81252       -1.87133       -4.64819
H          2.89045        0.97342       -4.65405
H          1.58400       -0.07355       -5.19664
