111
-148.54943253
P         -2.68315        1.88967       -0.09736
P          0.14848        0.54187        0.34693
C         -1.82251        2.08963        1.48993
C         -0.56891        1.54346        1.66018
C         -3.75697        3.35979       -0.44320
C         -3.45169        3.97257       -1.79190
C         -2.41721        2.77555        2.53020
H         -3.40576        3.18508        2.40334
C         -1.74856        2.91915        3.73382
H         -2.21305        3.45498        4.54547
C         -0.48948        2.37435        3.89791
H          0.02937        2.48335        4.83605
C          0.10057        1.67868        2.85815
H          1.07487        1.22985        2.97389
Pd        -1.06756        1.09486       -1.55374
Cl        -2.49925        1.37396       -3.24807
Cl         0.67964        0.24608       -2.69041
C         -5.18292        2.78073       -0.32704
C         -3.95291        0.54371       -0.07948
H         -3.67008        3.26530       -2.59282
H         -4.05303        4.86674       -1.97236
H         -2.39815        4.24966       -1.87393
H         -5.85342        3.31726       -1.01414
H         -5.58221        2.96743        0.68073
H         -3.60619       -0.23163       -0.77676
C         -5.21294        1.25306       -0.61613
C         -4.11234       -0.02904        1.31172
H         -3.55910        4.08986        0.35287
H         -6.10974        0.79230       -0.17671
H         -5.29688        1.09132       -1.70100
H         -4.85469       -0.83051        1.33413
H         -3.16790       -0.43271        1.68210
H         -4.43588        0.74367        2.01163
C         -1.35137       -3.73334        0.81758
C         -0.83284       -3.29652       -0.42788
C         -0.38408       -1.99204       -0.52542
C         -0.37345       -1.16009        0.56204
C         -0.76712       -1.61238        1.79394
C         -1.22521       -2.90819        1.96494
O         -2.03396       -4.97552        0.90700
C         -0.79866       -4.18848       -1.67789
H         -0.04982       -1.59245       -1.46646
H         -0.72891       -0.92844        2.62340
C         -1.60712       -3.38821        3.37413
C          4.67612        0.92391        0.04833
C          3.86743        2.08919        0.02927
C          2.49539        1.93972        0.15395
C          1.92592        0.69548        0.22633
C          2.69404       -0.43553        0.13492
C          4.07032       -0.35755        0.00521
O          6.08872        1.04014        0.14157
C          4.46039        3.50023       -0.10866
H          1.84707        2.79813        0.19829
H          2.19846       -1.39011        0.16267
C          4.87867       -1.65260       -0.17101
C         -2.09986       -3.99401       -2.47126
C          0.39383       -3.80852       -2.58542
C         -0.61981       -5.67006       -1.30093
C         -3.08702       -3.07303        3.64027
C         -1.35059       -4.89800        3.53234
C         -0.75190       -2.67160        4.44373
C         -3.43252       -4.88318        0.66574
H         -2.96869       -4.26457       -1.87584
H         -2.21547       -2.95261       -2.77123
H         -2.10373       -4.60722       -3.37195
H          0.26892       -2.82077       -3.02628
H          1.32641       -3.81750       -2.02252
H          0.49364       -4.51505       -3.40899
H         -0.53143       -6.29290       -2.19072
H          0.27881       -5.80698       -0.70027
H         -1.46487       -6.03819       -0.72477
H         -3.26862       -2.00003        3.58900
H         -3.73113       -3.55378        2.90798
H         -3.38702       -3.41694        4.62980
H         -0.31274       -5.13699        3.30271
H         -1.55712       -5.22619        4.55074
H         -1.98213       -5.47960        2.86537
H         -0.99179       -1.61127        4.50827
H         -0.92825       -3.09958        5.43032
H          0.31015       -2.77063        4.22077
H         -3.69735       -5.49714       -0.19487
H         -3.97800       -5.25755        1.53188
H         -3.71848       -3.84794        0.47483
C          6.58316        1.05246        1.47473
C          4.78244        4.05633        1.28645
C          5.72992        3.48348       -0.97968
C          3.45482        4.44985       -0.79849
C          4.03667       -2.72277       -0.90325
C          6.13513       -1.40879       -1.02651
C          5.27417       -2.19895        1.20895
H          3.88357        4.09890        1.90114
H          5.50665        3.43068        1.80249
H          5.19436        5.06299        1.21992
H          6.11203        4.49200       -1.13558
H          6.52151        2.90010       -0.51589
H          5.51969        3.04549       -1.95486
H          2.58894        4.64690       -0.16820
H          3.91770        5.41229       -1.01541
H          3.10585        4.02647       -1.74002
H          3.21074       -3.07651       -0.28790
H          3.62806       -2.32431       -1.83159
H          4.64536       -3.59208       -1.15091
H          6.82223       -0.72367       -0.53619
H          6.67193       -2.33931       -1.20932
H          5.86471       -0.97778       -1.98988
H          4.38861       -2.40610        1.80938
H          5.88465       -1.48436        1.75580
H          5.84201       -3.12419        1.11437
H          5.75999        0.98284        2.18693
H          7.26267        0.21305        1.62087
H          7.13856        1.97379        1.64942
