111
-148.55497973
P         -2.39924        2.35110       -0.10373
P         -0.00798        0.36105        0.48437
C         -1.74818        2.20681        1.57850
C         -0.74141        1.30311        1.83685
C         -2.54510        4.11514       -0.63524
C         -1.78925        4.33210       -1.92815
C         -2.27095        2.96891        2.60355
H         -3.04367        3.68931        2.39021
C         -1.79739        2.80521        3.89389
H         -2.20618        3.39824        4.69565
C         -0.80795        1.87715        4.15607
H         -0.44479        1.74315        5.16173
C         -0.27924        1.12267        3.12413
H          0.49206        0.39210        3.31280
Pd        -1.20654        0.89542       -1.43793
Cl        -2.70069        1.18006       -3.08687
Cl         0.01008       -0.61748       -2.57169
C         -4.06908        4.32337       -0.75915
C         -4.16742        1.81391       -0.25601
H         -2.19111        3.69446       -2.71814
H         -1.86410        5.36787       -2.26829
H         -0.72992        4.08788       -1.81567
H         -4.27634        5.04557       -1.56221
H         -4.46041        4.78323        0.16017
H         -4.16423        0.89721       -0.86151
C         -4.81502        2.98491       -1.02216
C         -4.79452        1.55124        1.09714
H         -2.12100        4.73017        0.17011
H         -5.87501        3.06836       -0.74097
H         -4.80921        2.77203       -2.10134
H         -4.21157        0.82998        1.67406
H         -4.84920        2.47072        1.68168
H         -5.81221        1.16583        0.99962
C         -1.15332       -4.03694        0.70221
C          0.20731       -3.66939        0.86399
C          0.53740       -2.32652        0.79314
C         -0.43090       -1.36942        0.64327
C         -1.75735       -1.71009        0.59165
C         -2.15636       -3.03543        0.64786
O         -1.50603       -5.40638        0.56700
C          1.32376       -4.70446        1.07472
H          1.56385       -2.00879        0.83968
H         -2.48056       -0.91952        0.48556
C         -3.65635       -3.36486        0.59593
C          4.49192        1.06219        0.09541
C          3.82849        0.17036       -0.78417
C          2.45853        0.02256       -0.65421
C          1.76253        0.64233        0.35012
C          2.41907        1.42716        1.26325
C          3.78701        1.62973        1.18696
O          5.84658        1.41940       -0.13833
C          4.55706       -0.61103       -1.88882
H          1.90250       -0.56203       -1.36466
H          1.84268        1.89775        2.03863
C          4.48104        2.47718        2.26536
C          2.50635       -4.08469        1.85404
C          0.81779       -5.89995        1.90215
C          1.83961       -5.18419       -0.29051
C         -4.49026       -2.21995        1.21373
C         -4.08538       -3.53823       -0.86941
C         -3.97469       -4.63668        1.40237
C         -1.51256       -5.87755       -0.77489
H          3.23917       -4.84769        2.11561
H          3.02732       -3.33124        1.26507
H          2.16173       -3.62153        2.77824
H          1.62313       -6.60575        2.10401
H          0.41486       -5.56271        2.85656
H          0.03104       -6.43911        1.38031
H          1.05422       -5.67297       -0.86084
H          2.20183       -4.34434       -0.88204
H          2.65870       -5.89300       -0.17164
H         -4.46291       -1.32730        0.59140
H         -5.53653       -2.50971        1.30842
H         -4.12251       -1.96220        2.20662
H         -3.88993       -2.62860       -1.43711
H         -3.54072       -4.34778       -1.34831
H         -5.14993       -3.75928       -0.94143
H         -3.63892       -4.53061        2.43338
H         -5.04600       -4.83579        1.41318
H         -3.48281       -5.50921        0.98030
H         -1.20673       -5.08408       -1.45809
H         -0.83115       -6.72300       -0.86798
H         -2.51291       -6.22015       -1.03854
C          6.00829        2.54048       -0.99846
C          3.86509       -1.97117       -2.13486
C          4.52289        0.20218       -3.19144
C          6.01187       -0.91929       -1.49073
C          4.49569        3.94879        1.82527
C          3.72848        2.37340        3.61178
C          5.91804        1.98471        2.51613
H          3.77127       -2.52761       -1.20315
H          2.87193       -1.85006       -2.56431
H          4.44228       -2.57912       -2.83106
H          5.02579       -0.33063       -3.99799
H          3.49487        0.38998       -3.50053
H          5.01222        1.16555       -3.06745
H          6.50390       -1.53030       -2.24709
H          6.59423       -0.00906       -1.37431
H          6.04422       -1.45915       -0.54493
H          3.48096        4.31437        1.66944
H          4.96904        4.57710        2.57935
H          5.04027        4.07587        0.89280
H          3.58748        1.33142        3.89797
H          4.28851        2.86553        4.40663
H          2.75167        2.85276        3.56643
H          6.53808        2.10343        1.63098
H          5.92031        0.92937        2.78675
H          6.38838        2.54356        3.32481
H          5.03610        2.94410       -1.28411
H          6.58640        3.31085       -0.48825
H          6.55383        2.24189       -1.89338
