171
-217.83944637
P         -1.72115        0.63336        0.24019
P          1.53248       -0.19828       -0.30610
C         -0.98912        1.73296       -0.99238
C          0.65210       -0.93948       -1.68968
C         -0.33337        1.29732       -2.13830
C          0.28341        2.25222       -2.96863
C          0.20933        3.59371       -2.63389
C         -0.44263        4.00707       -1.49235
C         -1.03452        3.06891       -0.66905
C          0.84966       -2.26266       -1.99727
C          0.17156       -2.83790       -3.05383
C         -0.70755       -2.07789       -3.79736
C         -0.92391       -0.74116       -3.50299
C         -0.21125       -0.15213       -2.44108
Cl         2.08178        1.18661        2.62202
Cl        -0.88996        0.43412        3.45908
C         -1.87884        0.05738       -4.31960
C          1.03195        1.85495       -4.19283
H         -0.48304        5.05350       -1.23763
H         -1.52806        3.37525        0.24156
H          1.54476       -2.84434       -1.41610
H          0.32722       -3.87688       -3.29439
H          0.68283        4.31750       -3.27573
H         -1.22955       -2.52160       -4.62784
C         -2.86236       -3.61142       -0.86538
C         -1.83667       -3.42606        0.05419
C         -1.47130       -2.12203        0.36244
C         -2.11412       -1.05780       -0.22605
C         -3.13945       -1.26138       -1.11651
C         -3.53766       -2.54940       -1.45311
H         -3.16238       -4.60936       -1.12371
H         -0.68965       -1.93793        1.07793
H         -3.63615       -0.40387       -1.53566
C         -5.58065        2.58692        1.59123
C         -5.27054        2.55171        0.23657
C         -4.07722        1.94870       -0.13907
C         -3.23713        1.41154        0.80504
C         -3.55888        1.45766        2.13695
C         -4.74197        2.04817        2.55946
H         -6.49625        3.04887        1.90935
H         -3.79142        1.90957       -1.17737
H         -2.86383        1.04220        2.84287
C          4.01538       -3.44885        1.69508
C          3.00623       -2.85328        2.43909
C          2.24341       -1.86873        1.82698
C          2.50121       -1.47554        0.53462
C          3.52296       -2.06124       -0.17297
C          4.29533       -3.06969        0.38943
H          4.60189       -4.22793        2.14637
H          1.44757       -1.39870        2.37302
H          3.71029       -1.73117       -1.17879
C          4.32783        2.97463       -1.92285
C          3.56638        3.26683       -0.79842
C          2.73441        2.27230       -0.30269
C          2.65210        1.05460       -0.92872
C          3.39124        0.79168       -2.05623
C          4.25646        1.74902       -2.57340
H          5.00613        3.72052       -2.29379
H          2.15268        2.43521        0.58627
H          3.27104       -0.16009       -2.54351
Pd         0.22830        0.56919        1.50775
C          0.34565       -4.61093        0.45231
C         -1.15758       -4.60043        0.77635
C         -1.75267       -5.95625        0.34957
C         -1.36133       -4.43722        2.29397
H          0.50680       -4.74449       -0.61664
H          0.81789       -3.67812        0.75285
H          0.85329       -5.42420        0.97028
H         -1.61535       -6.12631       -0.71817
H         -1.26502       -6.77521        0.87832
H         -2.81772       -6.00612        0.57535
H         -2.42299       -4.40191        2.53735
H         -0.91808       -5.26912        2.84059
H         -0.90649       -3.51678        2.65624
C         -5.76621       -3.67966       -1.67998
C         -4.71150       -2.82210       -2.40515
C         -4.19999       -3.57235       -3.64700
C         -5.38781       -1.51465       -2.86145
H         -6.62945       -3.85978       -2.32048
H         -5.36117       -4.64822       -1.38974
H         -6.11469       -3.17793       -0.77740
H         -3.72654       -4.51448       -3.37296
H         -5.01745       -3.79488       -4.33261
H         -3.46660       -2.97242       -4.18322
H         -4.68999       -0.87651       -3.40198
H         -6.22552       -1.72327       -3.52673
H         -5.77431       -0.95885       -2.00756
C         -5.40828        4.28164       -1.56970
C         -6.17581        3.16151       -0.84294
C         -7.46134        3.75902       -0.23956
C         -6.57303        2.06791       -1.85202
H         -6.02882        4.74715       -2.33520
H         -5.10045        5.05566       -0.86694
H         -4.51216        3.89659       -2.05528
H         -8.04135        2.99670        0.28034
H         -7.23011        4.55863        0.46392
H         -8.09490        4.18052       -1.01993
H         -7.23795        2.46650       -2.61804
H         -5.69843        1.65582       -2.35391
H         -7.08892        1.24998       -1.34946
C         -4.06809        1.47076        4.94528
C         -5.13186        2.12678        4.04258
C         -6.46986        1.39559        4.25651
C         -5.27426        3.60393        4.45295
H         -3.10403        1.96821        4.84179
H         -4.35907        1.53133        5.99379
H         -3.93988        0.41702        4.69883
H         -6.39145        0.35294        3.94909
H         -6.76267        1.41713        5.30609
H         -7.27015        1.85566        3.67811
H         -5.53103        3.69264        5.50841
H         -4.34048        4.14066        4.28631
H         -6.05369        4.10196        3.87748
C          2.36614       -4.75713        3.94112
C          2.77492       -3.27445        3.89752
C          1.66533       -2.43579        4.56381
C          4.07589       -3.07023        4.69627
H          1.45154       -4.92062        3.37314
H          3.14151       -5.39373        3.51639
H          2.18921       -5.08337        4.96582
H          1.91592       -1.37514        4.55354
H          0.71091       -2.56762        4.05630
H          1.52728       -2.73234        5.60330
H          4.88430       -3.68582        4.30386
H          4.39460       -2.02907        4.64983
H          3.93565       -3.33411        5.74435
C          6.74403       -3.61951        0.37522
C          5.41663       -3.76961       -0.39077
C          5.59632       -3.16175       -1.79625
C          5.06732       -5.26107       -0.54324
H          6.69107       -4.08636        1.35793
H          7.56401       -4.08602       -0.17054
H          6.98857       -2.56696        0.51716
H          4.68916       -3.26999       -2.39062
H          5.84662       -2.10277       -1.73509
H          6.40262       -3.66074       -2.33363
H          4.12002       -5.38213       -1.06864
H          5.83702       -5.78681       -1.10799
H          4.97491       -5.74630        0.42782
C          5.10162        4.85921        0.37881
C          3.66675        4.64726       -0.13563
C          2.69405        4.77664        1.05377
C          3.31595        5.73440       -1.16829
H          5.20110        5.82664        0.87067
H          5.36976        4.08523        1.09772
H          5.82325        4.82295       -0.43651
H          2.76042        5.76767        1.50221
H          1.66283        4.62659        0.73456
H          2.92415        4.04815        1.83091
H          3.35918        6.72679       -0.71991
H          4.00598        5.71949       -2.01100
H          2.30937        5.58386       -1.55737
C          4.75889        0.15335       -4.49093
C          5.16830        1.45563       -3.77412
C          6.61401        1.30772       -3.26832
C          5.09506        2.60837       -4.79460
H          4.87319       -0.71075       -3.83723
H          3.72246        0.19922       -4.82439
H          5.38264       -0.01769       -5.36818
H          7.29604        1.08971       -4.08996
H          6.95341        2.22197       -2.78215
H          6.68722        0.49726       -2.54325
H          5.44649        3.54615       -4.36693
H          5.71387        2.39387       -5.66581
H          4.07312        2.75820       -5.14020
H         -1.37399        0.52058       -5.16814
H          1.21047        0.77961       -4.22462
H         -2.33756        0.84941       -3.72542
H         -2.68135       -0.56857       -4.71188
H          2.00279        2.34998       -4.22466
H          0.48385        2.13445       -5.09369
