171
-217.83501509
P         -1.44089        0.24408       -0.39081
P          1.62907       -0.73671        0.38593
C         -0.40120        1.07360       -1.61612
C          0.99889       -1.71602       -1.00008
C          0.46646        0.29451       -2.37116
C          1.31904        0.91604       -3.30339
C          1.23807        2.28811       -3.47568
C          0.36286        3.04668       -2.72686
C         -0.44982        2.43557       -1.79251
C          0.97801       -3.07309       -0.77955
C          0.45813       -3.92668       -1.73336
C         -0.05690       -3.40755       -2.90168
C         -0.06144       -2.04303       -3.13686
C          0.48796       -1.17592       -2.17388
Cl         0.66267       -1.17157        3.39680
Cl        -2.36112       -1.61066        2.32541
C         -0.67454       -1.52963       -4.39265
C          2.28637        0.11602       -4.10474
H          0.32064        4.11483       -2.86389
H         -1.10662        3.03045       -1.18259
H          1.36313       -3.46189        0.15171
H          0.44616       -4.99019       -1.55924
H          1.87319        2.76349       -4.20373
H         -0.47607       -4.06502       -3.64465
C         -4.19834       -2.58172       -2.61123
C         -3.56082       -3.04301       -1.46662
C         -2.73486       -2.16067       -0.78421
C         -2.54292       -0.88349       -1.24635
C         -3.16653       -0.44959       -2.39047
C         -4.01438       -1.29369       -3.09847
H         -4.86965       -3.24181       -3.12851
H         -2.24788       -2.45948        0.12561
H         -2.97286        0.55052       -2.73661
C         -4.10426        3.34253        1.63100
C         -3.42402        2.43973        2.43604
C         -2.61553        1.49925        1.81332
C         -2.49306        1.46025        0.44428
C         -3.20732        2.34062       -0.33257
C         -4.01478        3.31216        0.24592
H         -4.72928        4.08315        2.09497
H         -2.09741        0.77236        2.40765
H         -3.13030        2.26701       -1.40277
C          5.56997       -2.63688        1.58451
C          4.70529       -2.22746        2.59373
C          3.49084       -1.66981        2.22135
C          3.15725       -1.53271        0.89908
C          4.02177       -1.94354       -0.08568
C          5.24946       -2.50634        0.23771
H          6.51471       -3.06825        1.85362
H          2.78803       -1.35058        2.96878
H          3.73475       -1.82242       -1.11739
C          2.82279        3.61983       -0.03685
C          3.60435        2.63001       -0.61849
C          3.17611        1.31543       -0.49553
C          2.02264        1.01069        0.18450
C          1.27022        2.00325        0.77065
C          1.65268        3.33486        0.65619
H          3.13899        4.64359       -0.10404
H          3.76641        0.51527       -0.90802
H          0.38182        1.73586        1.31312
Pd        -0.43969       -0.83634        1.47250
C         -5.27849       -4.66357       -0.62950
C         -3.79130       -4.48047       -0.98082
C         -2.94888       -4.79781        0.27112
C         -3.39284       -5.46540       -2.09525
H         -5.47198       -5.67180       -0.26374
H         -5.57906       -3.95916        0.14591
H         -5.91364       -4.49561       -1.49850
H         -1.88507       -4.67450        0.06930
H         -3.21977       -4.14743        1.10250
H         -3.10697       -5.82668        0.59367
H         -3.99229       -5.31440       -2.99212
H         -2.34573       -5.33502       -2.36661
H         -3.53112       -6.49692       -1.77183
C         -4.68248       -1.85021       -5.46967
C         -4.78972       -0.81329       -4.33426
C         -4.24108        0.52888       -4.85892
C         -6.26661       -0.62675       -3.94555
H         -5.20156       -1.50152       -6.36237
H         -3.64175       -2.02793       -5.73734
H         -5.12506       -2.80390       -5.18617
H         -4.76216        0.83129       -5.76718
H         -4.37562        1.32451       -4.12702
H         -3.17979        0.45241       -5.09437
H         -6.70003       -1.56387       -3.59714
H         -6.36394        0.10481       -3.14343
H         -6.85419       -0.27849       -4.79482
C         -3.26582        3.86375        4.50621
C         -3.61416        2.46673        3.96004
C         -2.71166        1.43327        4.66458
C         -5.08194        2.13543        4.28394
H         -3.40354        3.90346        5.58662
H         -2.22751        4.11426        4.29319
H         -3.89565        4.63415        4.06345
H         -2.95405        0.41855        4.34967
H         -1.65951        1.61886        4.44955
H         -2.84096        1.48000        5.74562
H         -5.25304        2.12874        5.36024
H         -5.75767        2.86666        3.84157
H         -5.34884        1.15377        3.89291
C         -4.59502        4.09726       -2.10471
C         -4.76565        4.35419       -0.59428
C         -4.20865        5.75207       -0.26911
C         -6.26809        4.29885       -0.26096
H         -3.54759        4.16016       -2.39940
H         -4.97409        3.11285       -2.37837
H         -5.14463        4.83639       -2.68738
H         -3.14172        5.80089       -0.48707
H         -4.70994        6.51952       -0.85857
H         -4.34533        5.99583        0.78395
H         -6.45321        4.53803        0.78541
H         -6.82819        5.01017       -0.86774
H         -6.66768        3.30323       -0.45310
C          6.41971       -3.01366        4.30594
C          5.03939       -2.36555        4.08596
C          3.97246       -3.24517        4.76466
C          5.04593       -0.96825        4.73348
H          6.45681       -4.01370        3.87432
H          7.21126       -2.41300        3.85824
H          6.63814       -3.10571        5.36982
H          4.19210       -3.37795        5.82378
H          2.98158       -2.79988        4.68387
H          3.93448       -4.23059        4.30094
H          4.07132       -0.48883        4.64927
H          5.29656       -1.02979        5.79229
H          5.77876       -0.32310        4.24925
C          6.54940       -1.72301       -1.75771
C          6.19053       -2.94604       -0.89275
C          5.48033       -4.00252       -1.76003
C          7.49427       -3.55809       -0.34585
H          7.03878       -0.95693       -1.15683
H          7.22610       -2.00122       -2.56542
H          5.66065       -1.28033       -2.20599
H          4.57686       -3.59927       -2.21616
H          6.13108       -4.35071       -2.56194
H          5.19423       -4.86495       -1.15831
H          8.14774       -3.86754       -1.16148
H          8.04274       -2.83669        0.25959
H          7.28898       -4.43776        0.26393
C          6.07739        2.30280       -0.46285
C          4.94674        2.92513       -1.30263
C          5.20035        4.43928       -1.43136
C          4.95738        2.31225       -2.71447
H          5.94914        1.22500       -0.36887
H          7.05033        2.48700       -0.91800
H          6.08774        2.72492        0.54183
H          4.40530        4.92131       -2.00019
H          5.26229        4.91315       -0.45196
H          6.14079        4.63104       -1.94791
H          4.15220        2.72861       -3.31824
H          5.89941        2.51887       -3.22211
H          4.83124        1.23122       -2.67950
C          0.52371        5.54952        0.25228
C          0.86814        4.48275        1.30961
C          1.73109        5.11123        2.41841
C         -0.44790        3.99118        1.93473
H          1.42102        5.97711       -0.19266
H         -0.07603        5.11984       -0.54884
H         -0.04711        6.36533        0.69558
H          1.99134        4.36690        3.17080
H          2.65807        5.51692        2.01459
H          1.19875        5.92218        2.91521
H         -1.00080        4.82191        2.37238
H         -1.08583        3.53479        1.18048
H         -0.26403        3.26178        2.72303
H         -0.06724       -1.79177       -5.26016
H          2.67866       -0.72060       -3.52422
H         -0.78716       -0.44511       -4.37183
H         -1.66595       -1.95996       -4.53648
H          3.13455        0.72251       -4.42449
H          1.81245       -0.28667       -5.00047
