111
-148.55264827
P         -2.49325        2.07090        0.97883
P          0.11538        0.34849        0.49544
C         -1.40437        1.67618        2.37467
C         -0.24463        0.96718        2.14872
C         -3.22099        3.76506        1.14398
C         -2.55480        4.75324        0.21161
C         -1.72896        2.07231        3.65649
H         -2.64702        2.60830        3.83279
C         -0.88226        1.76451        4.70757
H         -1.13489        2.07351        5.70874
C          0.28410        1.06063        4.47612
H          0.94195        0.81967        5.29486
C          0.60216        0.65651        3.19185
H          1.49992        0.09156        2.99448
Pd        -1.31962        1.47802       -0.92156
Cl        -2.93819        2.49268       -2.09731
Cl        -0.05774        0.85242       -2.67086
C         -4.71627        3.52017        0.86956
C         -4.03694        1.05167        0.92856
H         -2.98467        5.75222        0.31525
H         -1.48216        4.82258        0.40780
H         -2.67743        4.44984       -0.82868
H         -4.90815        3.67827       -0.20071
H         -5.33097        4.26738        1.39425
H         -4.13933        0.70675       -0.10914
C         -5.13870        2.07502        1.26234
C         -3.95123       -0.12298        1.87892
H         -3.07200        4.06570        2.18879
H         -5.34431        2.03415        2.34084
H         -6.08296        1.79481        0.77123
H         -4.87062       -0.71301        1.86976
H         -3.12267       -0.78384        1.61493
H         -3.78499        0.21789        2.90251
C         -1.21587       -3.98770        0.06272
C         -1.13880       -3.40679        1.35475
C         -0.71224       -2.09349        1.45984
C         -0.44062       -1.34817        0.34277
C         -0.61883       -1.87299       -0.90944
C         -1.04277       -3.17747       -1.08815
O         -1.43124       -5.38472       -0.07605
C         -1.48138       -4.18907        2.63238
H         -0.57962       -1.63372        2.42298
H         -0.41779       -1.23648       -1.75317
C         -1.28858       -3.69130       -2.51521
C          4.48000        0.82432       -0.70726
C          3.85578       -0.44562       -0.80070
C          2.53856       -0.55886       -0.38982
C          1.82919        0.53748        0.02549
C          2.39297        1.78614        0.01331
C          3.70808        1.96963       -0.38320
O          5.88099        0.94501       -0.90778
C          4.58131       -1.69240       -1.33086
H          2.04292       -1.51378       -0.39335
H          1.78514        2.62072        0.31875
C          4.28194        3.39382       -0.44613
C         -0.22116       -4.90228        3.14477
C         -1.99260       -3.23780        3.73844
C         -2.60085       -5.21271        2.36947
C         -1.76083       -2.53987       -3.43307
C          0.01902       -4.26444       -3.08194
C         -2.39332       -4.76305       -2.53693
C         -0.23509       -6.15211       -0.12810
H         -0.43073       -5.45658        4.05927
H          0.16190       -5.60366        2.40754
H          0.56841       -4.18242        3.35932
H         -2.82211       -2.63149        3.37626
H         -2.34488       -3.80282        4.60114
H         -1.20808       -2.57084        4.09280
H         -3.48350       -4.71987        1.96313
H         -2.28507       -5.97150        1.65769
H         -2.88949       -5.72267        3.28822
H         -2.06214       -2.92098       -4.40842
H         -2.61489       -2.02195       -2.99750
H         -0.97093       -1.81060       -3.60603
H         -0.12542       -4.63909       -4.09492
H          0.79235       -3.49769       -3.11364
H          0.38976       -5.08310       -2.46972
H         -2.61228       -5.07973       -3.55635
H         -2.10130       -5.64598       -1.97405
H         -3.31181       -4.37565       -2.09727
H          0.63715       -5.50588       -0.02114
H         -0.24088       -6.89094        0.67315
H         -0.18035       -6.68203       -1.07882
C          6.65316        0.76981        0.27327
C          5.63089       -1.31348       -2.39139
C          5.25084       -2.42872       -0.16098
C          3.58065       -2.65406       -2.01269
C          4.91358        3.74936        0.90803
C          5.32811        3.51837       -1.56887
C          3.16663        4.41845       -0.75521
H          5.16966       -0.75156       -3.20289
H          6.42002       -0.69805       -1.96672
H          6.09797       -2.20178       -2.81590
H          5.76671       -3.32400       -0.50713
H          5.97810       -1.79404        0.33978
H          4.50966       -2.73073        0.57868
H          2.99416       -2.12923       -2.76638
H          4.10442       -3.47256       -2.50592
H          2.89541       -3.10115       -1.29390
H          5.31796        4.76120        0.89658
H          4.17350        3.69014        1.70575
H          5.72301        3.06718        1.15636
H          5.68638        4.54351       -1.65923
H          6.19065        2.88419       -1.37931
H          4.89986        3.22266       -2.52604
H          2.46455        4.51206        0.07196
H          2.61099        4.12883       -1.64681
H          3.58798        5.40811       -0.93014
H          7.32849       -0.07619        0.14710
H          7.25437        1.66124        0.45146
H          6.00280        0.59175        1.13059
