58
-89.86339518
P          1.65752        0.27185        0.77178
C          2.87038        1.51346        0.31647
C          4.17753        1.15257        0.08347
C          5.10180        2.11581       -0.27858
C          4.70772        3.43339       -0.40541
C          3.39405        3.78994       -0.17174
C          2.47171        2.82438        0.19088
H          1.43988        3.08505        0.36791
H          4.46748        0.11870        0.17940
C          2.32180       -1.38400        0.52774
C          2.48483       -1.83169       -0.76349
C          2.95620       -3.10889       -1.00135
C          3.26613       -3.93289        0.06182
C          3.11258       -3.47890        1.35687
C          2.64147       -2.19959        1.59021
H          2.52804       -1.83781        2.59867
H          2.23969       -1.17196       -1.58009
C          1.25230        0.58079        2.53893
C          0.12670       -0.27877        3.09133
C         -1.25349        0.20266        2.68751
P         -1.66681        0.02692        0.90377
C         -1.94064       -1.70787        0.49898
C         -0.86902       -2.56834        0.57554
C         -1.02613       -3.90328        0.25238
C         -2.26053       -4.36977       -0.15265
C         -3.33096       -3.50215       -0.24523
C         -3.16781       -2.16720        0.07729
H         -3.98992       -1.47881       -0.02063
H          0.10146       -2.18397        0.83712
C         -3.13712        1.03977        0.66815
C         -4.31603        0.66614        1.27442
C         -5.44456        1.45392        1.13333
C         -5.38210        2.61965        0.39622
C         -4.19326        3.00291       -0.19184
C         -3.06697        2.21313       -0.04802
H         -2.13213        2.50539       -0.49874
H         -4.34670       -0.23328        1.86901
Pd        -0.08058        0.36712       -0.76855
Cl         1.47142        0.87953       -2.31617
Cl        -1.77465        0.60861       -2.22190
H         -2.03542       -0.33520        3.22926
H         -1.37351        1.26007        2.93199
H          0.26330       -1.32186        2.78234
H          0.19132       -0.29731        4.19053
H          2.18435        0.42306        3.08718
H          1.01015        1.64057        2.63786
H          6.12587        1.83695       -0.46503
H          3.08558        4.81719       -0.27585
H          3.07872       -3.45897       -2.01308
H          3.35964       -4.12091        2.18643
H         -0.18276       -4.57203        0.30497
H         -4.29146       -3.86275       -0.57500
H         -6.36941        1.15922        1.60145
H         -4.14168        3.91511       -0.76326
H          5.42615        4.18454       -0.69065
H          3.63201       -4.93042       -0.11927
H         -2.38614       -5.40951       -0.40733
H         -6.26084        3.23360        0.28390
