59
-75.79856472
Cl         1.61805        1.02517        2.27899
P          1.66663        0.06995       -0.78714
P         -1.48082       -0.22888       -0.78610
C          0.69724        0.37844       -2.32744
H          0.39681        1.42924       -2.33901
H          1.34570        0.20831       -3.19241
C         -0.50562       -0.52350       -2.32758
H         -0.19965       -1.57298       -2.33664
H         -1.15268       -0.36137       -3.19533
C          2.45787       -1.60098       -0.88072
H          2.23546       -1.99714       -1.87879
C          3.17933        1.12232       -0.62558
H          3.29075        1.33331        0.44502
C         -2.60431       -1.62053       -0.30628
H         -2.43836       -1.79035        0.76465
C         -2.71928        1.12633       -1.00828
H         -2.81632        1.28816       -2.08867
C          3.96304       -1.30213       -0.73779
H          4.26509       -1.49962        0.29975
H          4.55373       -1.99715       -1.35337
C          4.29617        0.17356       -1.09442
H          4.41280        0.27397       -2.18255
H          5.26287        0.47603       -0.66308
C         -4.00814       -1.03484       -0.54406
H         -4.35023       -1.33027       -1.54548
H         -4.73170       -1.47705        0.15764
C         -4.01021        0.51536       -0.43444
H         -4.09769        0.80478        0.62196
H         -4.89330        0.94331       -0.93298
C          1.89220       -2.52002        0.19507
H          0.79554       -2.52266        0.12670
H          2.11554       -2.08878        1.18044
C          3.07611        2.42871       -1.40209
H          4.06634        2.90372       -1.44164
H          2.82224        2.20341       -2.44596
C         -2.31010       -2.89434       -1.08955
H         -2.45263       -2.69295       -2.15953
H         -1.24686       -3.14790       -0.98107
C         -2.26681        2.40762       -0.31940
H         -2.15221        2.21054        0.75482
H         -1.26047        2.66919       -0.67333
C          2.42363       -3.94253        0.10507
H          2.00209       -4.58677        0.88004
H          3.50949       -3.96825        0.21220
H          2.18491       -4.39112       -0.86114
C          2.06174        3.38912       -0.79929
H          1.96992        4.30968       -1.38005
H          2.34029        3.66775        0.21881
H          1.07188        2.93557       -0.74143
C         -3.17049       -4.07115       -0.65399
H         -2.93815       -4.97905       -1.21543
H         -4.23216       -3.86119       -0.79577
H         -3.02549       -4.29347        0.40497
C         -3.21848        3.57333       -0.54182
H         -2.87112        4.48483       -0.05004
H         -3.32836        3.79461       -1.60514
H         -4.21451        3.35175       -0.15444
Cl        -1.60678        0.13003        2.35880
Pd         0.06426        0.24531        0.86808
