171
-217.83911242
P         -1.47796        0.19225       -0.41329
P          1.66346       -0.73839        0.16360
C         -0.49684        1.08221       -1.64131
C          1.01396       -1.69812       -1.22546
C          0.35866        0.36380       -2.46866
C          1.14564        1.05524       -3.40915
C          1.01999        2.43160       -3.50876
C          0.15985        3.12803       -2.68551
C         -0.59516        2.44765       -1.75102
C          0.98926       -3.06152       -1.04646
C          0.42266       -3.88058       -2.00346
C         -0.14425       -3.32068       -3.12805
C         -0.16373       -1.94833       -3.31143
C          0.43073       -1.11487       -2.34513
Cl         0.88211       -1.50803        3.10953
Cl        -2.19561       -1.79489        2.26953
C         -0.84382       -1.39185       -4.51327
C          2.09039        0.32309       -4.29731
H          0.08178        4.20002       -2.76554
H         -1.25691        2.98732       -1.09679
H          1.39003       -3.48273       -0.13644
H          0.41053       -4.94911       -1.86315
H          1.60626        2.95972       -4.24139
H         -0.59987       -3.95166       -3.87255
C         -4.30698       -2.54148       -2.65759
C         -3.63743       -3.04682       -1.55029
C         -2.79198       -2.19145       -0.85736
C         -2.60634       -0.89983       -1.27991
C         -3.25967       -0.42270       -2.38980
C         -4.13407       -1.23622       -3.10105
H         -4.99477       -3.18044       -3.17978
H         -2.28762       -2.52063        0.03240
H         -3.06808        0.58716       -2.70773
C         -4.09133        3.13969        1.87921
C         -3.28757        2.27156        2.60763
C         -2.48485        1.38386        1.90581
C         -2.49123        1.35448        0.53174
C         -3.31769        2.20066       -0.16665
C         -4.12235        3.12181        0.49033
H         -4.71363        3.83782        2.40490
H         -1.87024        0.69211        2.45110
H         -3.33781        2.14706       -1.24138
C          5.59893       -2.29459        1.78119
C          4.90354       -1.31029        2.47427
C          3.68189       -0.89577        1.96070
C          3.18326       -1.44400        0.80621
C          3.89467       -2.39654        0.11957
C          5.11451       -2.85174        0.60240
H          6.54433       -2.62786        2.16350
H          3.11659       -0.12203        2.45469
H          3.50990       -2.77037       -0.81306
C          2.82005        3.63314       -0.03019
C          3.53678        2.69967       -0.77015
C          3.11006        1.37831       -0.73313
C          2.01138        1.01914        0.00798
C          1.32466        1.95211        0.74966
C          1.71670        3.28462        0.74110
H          3.14652        4.65492       -0.03387
H          3.66264        0.61052       -1.24976
H          0.49714        1.63783        1.36115
Pd        -0.34919       -0.96204        1.30954
C         -5.32756       -4.70555       -0.73098
C         -3.85172       -4.50358       -1.11775
C         -2.97154       -4.87023        0.09407
C         -3.48434       -5.43997       -2.28370
H         -5.50839       -5.72869       -0.40198
H         -5.60661       -4.03484        0.08145
H         -5.98822       -4.50368       -1.57335
H         -1.91456       -4.73417       -0.13399
H         -3.21912       -4.25675        0.96003
H         -3.11712       -5.91246        0.37721
H         -4.11111       -5.25444       -3.15506
H         -2.44627       -5.29397       -2.58090
H         -3.60979       -6.48457       -1.99945
C         -4.87319       -1.69224       -5.47228
C         -4.94874       -0.70594       -4.29031
C         -4.42171        0.66069       -4.77246
C         -6.41368       -0.54339       -3.84863
H         -5.42215       -1.30850       -6.33212
H         -3.84078       -1.85220       -5.78031
H         -5.30206       -2.65983       -5.21609
H         -4.97444        1.00127       -5.64791
H         -4.53270        1.42251       -4.00150
H         -3.36907        0.59903       -5.04763
H         -6.83369       -1.49704       -3.52997
H         -6.48875        0.15067       -3.01162
H         -7.02802       -0.15960       -4.66293
C         -1.85496        2.48818        4.65729
C         -3.28228        2.22949        4.14263
C         -3.75373        0.83878        4.60809
C         -4.21826        3.29352        4.74672
H         -1.82469        2.47569        5.74657
H         -1.16054        1.72979        4.29788
H         -1.49819        3.46124        4.32172
H         -4.75490        0.62680        4.23375
H         -3.09029        0.05416        4.24613
H         -3.77888        0.77839        5.69584
H         -4.19676        3.25346        5.83573
H         -3.91559        4.29689        4.44748
H         -5.24936        3.13370        4.43208
C         -4.10786        4.90052       -1.27500
C         -5.00306        4.06808       -0.33735
C         -5.80294        5.03360        0.55784
C         -5.99536        3.23605       -1.17112
H         -3.37617        5.47051       -0.70259
H         -3.56426        4.26475       -1.97295
H         -4.70173        5.60317       -1.85922
H         -5.13747        5.65089        1.16117
H         -6.41586        5.70250       -0.04625
H         -6.47038        4.48853        1.22503
H         -6.62255        2.62321       -0.52404
H         -6.64627        3.88064       -1.76151
H         -5.47435        2.57014       -1.85777
C          6.79154       -1.24190        4.18152
C          5.43896       -0.64471        3.74919
C          4.42607       -0.84884        4.89151
C          5.62866        0.86159        3.48650
H          6.70210       -2.30913        4.38341
H          7.54888       -1.09701        3.41131
H          7.15219       -0.76283        5.09170
H          4.78614       -0.40116        5.81757
H          3.46411       -0.39597        4.65465
H          4.25842       -1.91044        5.07134
H          4.68603        1.33968        3.22177
H          6.02213        1.36564        4.36898
H          6.32633        1.02383        2.66506
C          6.23216       -3.36824       -1.58009
C          5.88069       -3.92274       -0.18714
C          4.99490       -5.17430       -0.33543
C          7.18640       -4.33166        0.52147
H          6.84033       -2.46795       -1.49366
H          6.79231       -4.10027       -2.16160
H          5.33464       -3.11220       -2.14210
H          4.08011       -4.95075       -0.88310
H          5.52040       -5.96288       -0.87371
H          4.71223       -5.56324        0.64259
H          7.70892       -5.10193       -0.04570
H          7.86196       -3.48235        0.62155
H          6.98430       -4.73317        1.51433
C          6.01471        2.38303       -0.79163
C          4.83205        3.05399       -1.51459
C          5.07130        4.57573       -1.55122
C          4.75840        2.54369       -2.96474
H          5.90161        1.29927       -0.77513
H          6.95800        2.61484       -1.28574
H          6.07962        2.72638        0.24071
H          4.23513        5.09096       -2.02386
H          5.20466        4.97867       -0.54753
H          5.97071        4.81187       -2.11984
H          3.91020        2.98761       -3.48408
H          5.66244        2.80300       -3.51547
H          4.65015        1.46070       -2.99989
C          1.56472        5.71841        1.48670
C          1.00345        4.29319        1.65478
C          1.20606        3.85743        3.11742
C         -0.49876        4.32943        1.32502
H          2.61915        5.76141        1.75871
H          1.45663        6.06279        0.45826
H          1.03202        6.42065        2.12793
H          0.79525        2.86402        3.29221
H          2.26691        3.82510        3.36522
H          0.72013        4.55050        3.80375
H         -1.02943        5.01265        1.98784
H         -0.66042        4.66445        0.30125
H         -0.94911        3.34572        1.43466
H         -0.27827       -1.61201       -5.41980
H          2.55192       -0.51458       -3.77178
H         -0.96557       -0.31043       -4.44299
H         -1.83705       -1.82746       -4.62511
H          2.89099        0.97476       -4.64925
H          1.57614       -0.07034       -5.17472
