111
-148.55535687
P         -2.58402        2.02349        0.77485
P          0.14684        0.43264        0.43225
C         -1.46311        1.83537        2.18751
C         -0.26156        1.18003        2.02275
C         -3.44377        3.66190        0.77365
C         -2.87936        4.57579       -0.29210
C         -1.81197        2.33123        3.42730
H         -2.76178        2.82384        3.55633
C         -0.94851        2.17777        4.49838
H         -1.22007        2.56492        5.46688
C          0.25829        1.52658        4.32880
H          0.92927        1.40514        5.16320
C          0.60077        1.02159        3.08730
H          1.53174        0.49625        2.94088
Pd        -1.34381        1.39533       -1.05844
Cl        -3.06190        1.97392       -2.37693
Cl         0.01494        0.71259       -2.71515
C         -4.92063        3.27363        0.57061
C         -4.04012        0.88407        0.83041
H         -1.81282        4.75560       -0.13678
H         -2.99537        4.13342       -1.28267
H         -3.38937        5.54194       -0.30091
H         -5.15177        3.31865       -0.50262
H         -5.58151        4.01406        1.04643
H         -4.12532        0.45060       -0.17520
C         -5.21558        1.84134        1.10145
C         -3.85347       -0.20054        1.86873
H         -3.29577        4.09472        1.77110
H         -5.39624        1.88185        2.18447
H         -6.14282        1.44272        0.66234
H         -2.97880       -0.81436        1.64385
H         -3.70372        0.23264        2.85944
H         -4.72412       -0.85836        1.92089
C         -1.16537       -3.93216        0.34860
C         -0.98532       -3.27926        1.59744
C         -0.55844       -1.96149        1.59283
C         -0.38747       -1.27753        0.41790
C         -0.67847       -1.86794       -0.78303
C         -1.11326       -3.17886       -0.85405
O         -1.31370       -5.34194        0.29585
C         -1.24513       -3.94737        2.95835
H         -0.34968       -1.45252        2.51780
H         -0.55557       -1.28407       -1.67894
C         -1.53926       -3.71553       -2.23062
C          4.54628        0.81548       -0.68080
C          3.87024        1.92006       -0.10179
C          2.53920        1.76532        0.25138
C          1.87278        0.59575       -0.00579
C          2.49320       -0.43641       -0.65913
C          3.81857       -0.34484       -1.04829
O          5.95400        0.85885       -0.86555
C          4.56646        3.26370        0.16611
H          2.00130        2.55890        0.74089
H          1.92079       -1.32335       -0.86686
C          4.44209       -1.49818       -1.85002
C         -2.07266       -2.99658        3.85162
C         -2.05095       -5.25138        2.82620
C          0.09843       -4.24151        3.64545
C         -2.47190       -2.68782       -2.91079
C         -0.29299       -3.92140       -3.10739
C         -2.32128       -5.03617       -2.12833
C         -0.07308       -6.01845        0.17912
H         -3.00874       -2.72835        3.36316
H         -2.31579       -3.47125        4.80190
H         -1.53388       -2.07788        4.07732
H         -2.97591       -5.07746        2.27747
H         -1.48520       -6.01202        2.29338
H         -2.30672       -5.65626        3.80510
H         -0.05552       -4.69912        4.62235
H          0.70440       -4.92059        3.04856
H          0.67044       -3.32551        3.79025
H         -1.95699       -1.75330       -3.12716
H         -2.85251       -3.07405       -3.85584
H         -3.32490       -2.46084       -2.27192
H          0.24782       -2.98504       -3.24042
H          0.39013       -4.63966       -2.65767
H         -0.56832       -4.29154       -4.09455
H         -2.69702       -5.34694       -3.10290
H         -1.69310       -5.83771       -1.74705
H         -3.17060       -4.92838       -1.45459
H         -0.25301       -7.09210        0.12053
H          0.44861       -5.69068       -0.71880
H          0.55149       -5.80506        1.04514
C          6.70052        0.36068        0.23743
C          5.64320        3.55132       -0.89618
C          3.55139        4.42754        0.10313
C          5.19694        3.23897        1.56671
C          5.05558       -2.52082       -0.88203
C          3.36690       -2.21125       -2.70251
C          5.51424       -0.97660       -2.82370
H          6.08888        4.53442       -0.74670
H          6.44487        2.81802       -0.85746
H          5.21219        3.52239       -1.89635
H          2.99250        4.40382       -0.83204
H          2.84235        4.38938        0.92878
H          4.06098        5.38891        0.16412
H          5.69041        4.18461        1.78964
H          4.43666        3.06678        2.32829
H          5.93596        2.44604        1.65239
H          4.29580       -2.91807       -0.20926
H          5.49602       -3.35664       -1.42508
H          5.83403       -2.06919       -0.27199
H          3.82387       -2.93560       -3.37630
H          2.65764       -2.75657       -2.08160
H          2.81332       -1.49345       -3.30739
H          5.91087       -1.78343       -3.43944
H          6.34916       -0.52801       -2.29108
H          5.09469       -0.21936       -3.48521
H          7.31902       -0.47570       -0.08767
H          7.35858        1.14252        0.61622
H          6.03099        0.03138        1.03301
