75
-122.81318691
P          1.88952       -0.52215       -0.14765
C          3.32259       -1.21622       -1.00170
C          4.31135       -1.78055       -0.22655
C          5.42860       -2.33544       -0.82452
C          5.55081       -2.32088       -2.19940
C          4.56258       -1.74798       -2.97422
C          3.45080       -1.19215       -2.37094
H          2.69304       -0.71320       -2.96491
H          4.66086       -1.72618       -4.04719
H          6.41995       -2.75328       -2.66774
H          6.20017       -2.77962       -0.21736
H          4.20228       -1.78886        0.84649
C          1.62808       -1.57766        1.28223
C          1.88246       -1.10918        2.55083
C          1.79676       -1.96905        3.63022
C          1.46258       -3.29370        3.42882
C          1.21013       -3.75940        2.15355
C          1.29724       -2.89724        1.07513
H          1.12499       -3.24952        0.07001
H          0.94685       -4.79252        1.99721
H          1.39182       -3.96415        4.26967
H          1.98944       -1.60478        4.62584
H          2.14974       -0.07430        2.68981
C          2.25960        1.16260        0.35248
C          3.41755        1.81687        0.00429
C          3.58996        3.15766        0.32060
C          2.55107        3.83340        0.96059
C          1.38101        3.19094        1.30113
C          1.23743        1.82423        1.01457
O          0.06728        1.12427        1.34742
C         -1.14055        1.78387        1.07299
C         -1.30400        3.15169        1.34330
C         -2.49766        3.76299        1.03049
C         -3.53865        3.05390        0.43239
C         -3.36166        1.70271        0.16960
C         -2.18052        1.07555        0.49050
P         -1.78620       -0.64029        0.09374
C         -1.73096       -1.58392        1.62875
C         -1.41690       -0.96810        2.81847
C         -1.46991       -1.68084        4.00159
C         -1.83208       -3.01294        3.98509
C         -2.13770       -3.63201        2.78935
C         -2.08930       -2.91292        1.60863
H         -2.34269       -3.37945        0.67003
H         -2.41756       -4.67250        2.77519
H         -1.86944       -3.57195        4.90579
H         -1.22041       -1.19882        4.93249
H         -1.11317        0.06490        2.81338
C         -3.09578       -1.38195       -0.89833
C         -4.37563       -1.39305       -0.39157
C         -5.39904       -1.97691       -1.11605
C         -5.13083       -2.55546       -2.34041
C         -3.84266       -2.55786       -2.83701
C         -2.82179       -1.97393       -2.10990
H         -1.81189       -1.97786       -2.48628
H         -3.63184       -3.01326       -3.79067
H         -5.92714       -3.00954       -2.90731
H         -6.40238       -1.98274       -0.72293
H         -4.56611       -0.95932        0.57772
Pd        -0.05737       -0.05238       -1.44763
Cl        -1.76705        0.92809       -2.54980
Cl         1.43669        1.03594       -2.73390
H         -4.14360        1.14901       -0.31812
C         -4.82318        3.72560        0.09953
H         -5.26627        3.29861       -0.80115
H         -4.67585        4.79162       -0.07819
H         -5.54056        3.61516        0.91366
H         -2.62008        4.81021        1.24369
S          0.03828        4.05054        2.07863
H          2.65517        4.88078        1.18257
C          4.82876        3.87561       -0.08047
H          4.18232        1.28861       -0.53830
H          5.69051        3.20692       -0.07130
H          4.72955        4.28343       -1.08716
H          5.04272        4.70176        0.59881
