111
-148.54838687
P         -2.54091        2.03392        0.76577
P          0.16812        0.35584        0.65566
C         -1.57470        1.75053        2.27435
C         -0.39105        1.04625        2.21804
C         -3.20916        3.75845        0.71064
C         -2.52147        4.57310       -0.36313
C         -2.03007        2.23177        3.48535
H         -2.96391        2.76845        3.52759
C         -1.29242        2.01132        4.63607
H         -1.64745        2.38721        5.58173
C         -0.10435        1.30826        4.57463
H          0.46868        1.13525        5.47066
C          0.34626        0.82030        3.36086
H          1.26647        0.26084        3.29509
Pd        -1.20685        1.30385       -1.00211
Cl        -2.85842        1.93493       -2.41567
Cl         0.27203        0.63140       -2.58369
C         -4.71769        3.54138        0.48375
C         -4.11541        1.07011        0.72915
H         -1.44436        4.63182       -0.18856
H         -2.66936        4.12118       -1.34525
H         -2.91509        5.59135       -0.40574
H         -4.92657        3.62211       -0.59183
H         -5.29745        4.34751        0.95824
H         -4.21018        0.69290       -0.29701
C         -5.18222        2.14726        0.99456
C         -4.09295       -0.06865        1.72632
H         -3.02818        4.19345        1.70205
H         -5.37563        2.19639        2.07501
H         -6.14017        1.85873        0.53552
H         -3.95627        0.30843        2.74137
H         -5.02627       -0.63602        1.70602
H         -3.27152       -0.75958        1.52201
C         -1.32431       -3.86477       -0.15406
C         -0.46786       -3.66089        0.96038
C         -0.01063       -2.37859        1.21537
C         -0.42610       -1.32361        0.44626
C         -1.36064       -1.49828       -0.53840
C         -1.85788       -2.74984       -0.85092
O         -1.61121       -5.18307       -0.59726
C          0.00739       -4.81427        1.85764
H          0.67709       -2.18862        2.01974
H         -1.65545       -0.45446       -1.05903
C         -2.89752       -2.87993       -1.97262
C          4.58978        0.86070       -0.31434
C          4.14111       -0.33872        0.29978
C          2.78905       -0.47012        0.56742
C          1.91509        0.55931        0.33426
C          2.36475        1.76532       -0.13593
C          3.70248        1.96261       -0.43916
O          5.89220        0.92845       -0.87232
C          5.06573       -1.50198        0.69838
H          2.40267       -1.39880        0.94745
H          1.64732        2.55445       -0.28864
C          4.13393        3.36357       -0.90423
C          1.31651       -5.38883        1.29474
C          0.26763       -4.31443        3.29683
C         -1.05975       -5.91977        1.95313
C         -3.81634       -1.64036       -2.00499
C         -2.16926       -2.98525       -3.32097
C         -3.80603       -4.10336       -1.75833
C         -0.68992       -5.67837       -1.56098
H          1.68710       -6.20100        1.91961
H          1.17632       -5.77659        0.28857
H          2.08702       -4.61953        1.24913
H         -0.60170       -3.78529        3.68638
H          0.47764       -5.14998        3.96422
H          1.12615       -3.64604        3.34303
H         -1.23980       -6.38206        0.98579
H         -0.74928       -6.70597        2.64085
H         -2.00482       -5.51104        2.30915
H         -3.26828       -0.74003       -2.27637
H         -4.61053       -1.76537       -2.74052
H         -4.28298       -1.48389       -1.03347
H         -1.55387       -2.10249       -3.49421
H         -1.51591       -3.85437       -3.34884
H         -2.87899       -3.06899       -4.14351
H         -3.24154       -5.03107       -1.80354
H         -4.29039       -4.05491       -0.78354
H         -4.58278       -4.15273       -2.52111
H         -1.21105       -5.88662       -2.49518
H          0.09985       -4.94807       -1.74194
H         -0.24999       -6.60835       -1.20096
C          5.93702        0.48112       -2.21718
C          4.85096       -2.68082       -0.26548
C          6.55002       -1.09711        0.69644
C          4.72510       -1.95829        2.13491
C          3.50728        4.43032        0.02096
C          5.65898        3.55790       -0.84345
C          3.64148        3.59475       -2.34273
H          3.81199       -3.00885       -0.25445
H          5.09988       -2.40417       -1.28802
H          5.47393       -3.53025        0.01350
H          6.89261       -0.85742       -0.30728
H          6.70957       -0.21956        1.32199
H          7.17777       -1.90355        1.07480
H          3.72070       -2.37304        2.20168
H          5.41681       -2.73011        2.47154
H          4.79124       -1.12149        2.82969
H          2.42132        4.44511       -0.05413
H          3.77159        4.24036        1.06083
H          3.86279        5.42696       -0.23949
H          5.93416        4.58446       -1.08429
H          6.03610        3.32902        0.15266
H          6.16817        2.90727       -1.55035
H          2.55816        3.49544       -2.40389
H          4.07815        2.87225       -3.02925
H          3.90805        4.59234       -2.69066
H          5.28596        1.09504       -2.83710
H          6.96019        0.55347       -2.58652
H          5.60399       -0.55344       -2.27875
