111
-148.54999171
P         -1.98829        2.37894        1.31478
P         -0.00715        0.03954        0.50576
C         -1.09992        1.47653        2.60348
C         -0.24927        0.45393        2.24742
C         -1.70755        4.19905        1.47014
C         -0.78693        4.69766        0.37747
C         -1.26917        1.80564        3.93262
H         -1.92779        2.61621        4.19989
C         -0.59190        1.09451        4.90816
H         -0.72389        1.34830        5.94728
C          0.24988        0.05850        4.55119
H          0.77381       -0.49837        5.31051
C          0.42130       -0.26317        3.21660
H          1.07088       -1.07279        2.92209
Pd        -1.51831        1.34374       -0.68777
Cl        -2.71799        2.89974       -1.76402
Cl        -1.14310        0.01340       -2.46193
C         -3.13467        4.77702        1.42612
C         -3.83176        2.31621        1.47709
H         -0.61827        5.77418        0.45719
H          0.18381        4.19705        0.41714
H         -1.21488        4.50265       -0.60735
H         -3.36714        5.06163        0.39068
H         -3.18964        5.70939        2.00831
H         -4.21434        2.13221        0.46407
C         -4.18682        3.74567        1.92581
C         -4.27734        1.22052        2.42179
H         -1.25939        4.35652        2.46003
H         -4.23441        3.77143        3.02311
H         -5.19638        4.01553        1.58030
H         -3.87882        1.38342        3.42421
H         -5.36610        1.18139        2.50245
H         -3.92670        0.24204        2.08550
C         -1.13812       -4.32048       -0.18291
C         -1.78268       -3.56302        0.82764
C         -1.38795       -2.24846        1.01493
C         -0.42794       -1.67654        0.22027
C          0.12781       -2.37534       -0.81859
C         -0.24556       -3.68254       -1.08219
O         -1.36311       -5.72019       -0.26938
C         -2.87058       -4.15986        1.73358
H         -1.82075       -1.64969        1.79787
H          0.85321       -1.87836       -1.43735
C          0.30732       -4.37307       -2.33916
C          4.17294        1.13610       -0.96067
C          3.88556        1.17085        0.42784
C          2.61645        0.80543        0.84478
C          1.63516        0.49065       -0.05915
C          1.87965        0.56914       -1.40507
C          3.12696        0.91681       -1.89231
O          5.50785        1.29588       -1.41932
C          4.92702        1.58189        1.48116
H          2.37572        0.76608        1.89176
H          1.06428        0.36407       -2.07528
C          3.33534        1.03498       -3.41034
C         -3.72880       -5.17954        0.96318
C         -2.20880       -4.83355        2.94508
C         -3.82596       -3.05792        2.24523
C          1.66024       -5.02226       -2.01241
C         -0.67603       -5.43057       -2.87303
C          0.51122       -3.34119       -3.47252
C         -0.41323       -6.50363        0.44184
H         -4.16625       -4.72088        0.07705
H         -3.13578       -6.03173        0.63983
H         -4.53943       -5.55882        1.58485
H         -1.61395       -4.11466        3.50817
H         -2.95779       -5.25244        3.61664
H         -1.54822       -5.63949        2.63483
H         -3.32553       -2.38033        2.93568
H         -4.22406       -2.47395        1.41578
H         -4.66837       -3.49470        2.78110
H          2.07907       -5.51425       -2.88991
H          2.37486       -4.27302       -1.67234
H          1.56069       -5.76573       -1.22487
H         -0.81539       -6.23985       -2.16097
H         -1.65110       -4.98396       -3.06489
H         -0.31435       -5.86854       -3.80298
H         -0.39935       -2.76667       -3.64083
H          1.31540       -2.64468       -3.24326
H          0.77343       -3.83693       -4.40682
H          0.13954       -7.13412       -0.25417
H          0.28311       -5.86038        0.98131
H         -0.93270       -7.15069        1.14859
C          6.24515        0.08250       -1.49850
C          4.23904        2.23850        2.70032
C          5.68595        0.33510        1.95998
C          5.91278        2.61928        0.91332
C          2.01279        1.40845       -4.11854
C          4.35240        2.14256       -3.73983
C          3.82136       -0.31191       -3.96621
H          3.64423        1.52126        3.26396
H          4.97887        2.64887        3.38725
H          3.58709        3.05292        2.38530
H          4.99934       -0.38883        2.39832
H          6.20021       -0.15451        1.13653
H          6.42848        0.59549        2.71386
H          6.60950        2.95842        1.67952
H          6.49888        2.20551        0.09673
H          5.37754        3.48858        0.53274
H          2.18516        1.62033       -5.17341
H          1.28714        0.59778       -4.07053
H          1.56740        2.29499       -3.66793
H          4.03448        3.09409       -3.31501
H          5.33553        1.90957       -3.33789
H          4.45813        2.26994       -4.81687
H          3.09846       -1.09890       -3.75514
H          4.76840       -0.60465       -3.52011
H          3.95984       -0.26156       -5.04590
H          6.61987       -0.04997       -2.51337
H          7.10046        0.12784       -0.82474
H          5.61396       -0.76524       -1.22896
