87
-129.17669595
P         -1.71032       -0.37049        0.37101
P          1.53686        0.42275       -0.07993
C         -1.52252        1.00082       -0.79853
C          1.16906       -0.55567       -1.54265
C         -0.72211        1.00244       -1.93871
C         -0.61372        2.19004       -2.68792
C         -1.31483        3.31411       -2.28711
C         -2.10190        3.29538       -1.15697
C         -2.19656        2.13598       -0.41169
C          1.97767       -1.60633       -1.90060
C          1.70352       -2.32817       -3.04569
C          0.61598       -1.99079       -3.82496
C         -0.21408       -0.93691       -3.47899
C          0.07681       -0.19115       -2.31932
Cl         1.45774        1.58280        2.99134
Cl        -1.10375       -0.23721        3.56362
H         -2.63307        4.18128       -0.84985
H         -2.79234        2.11376        0.48903
H          2.83057       -1.85487       -1.29142
H          2.33587       -3.15406       -3.32742
H         -1.22832        4.21725       -2.86723
H          0.39860       -2.55348       -4.71691
C         -0.41211       -4.57934       -0.76308
C         -1.24224       -3.87904       -1.62704
C         -1.63395       -2.59204       -1.27512
C         -1.19964       -2.02912       -0.09840
C         -0.41501       -2.74915        0.77290
C         -0.00660       -4.02472        0.43443
H         -0.09655       -5.57291       -1.03250
C         -1.68799       -4.49422       -2.90687
H         -2.27444       -2.02525       -1.92908
H         -0.16267       -2.32532        1.73203
H          0.61384       -4.59033        1.11024
C         -6.13854       -0.59163        1.39563
C         -5.21152       -0.56589        2.41873
C         -3.86468       -0.49302        2.12394
C         -3.45201       -0.44882        0.81440
C         -4.37295       -0.47524       -0.20790
C         -5.73441       -0.53836        0.06864
H         -7.18950       -0.65413        1.62135
H         -5.53713       -0.60365        3.44539
H         -3.12771       -0.46776        2.90794
H         -4.03325       -0.44014       -1.23020
C         -6.73000       -0.58936       -1.03646
C          5.02296       -1.44486        2.18178
C          5.10261       -0.13260        1.75890
C          4.05021        0.43314        1.06413
C          2.92811       -0.31566        0.79812
C          2.84595       -1.62122        1.22170
C          3.89596       -2.20988        1.91416
H          5.83861       -1.88516        2.72958
H          5.98136        0.45258        1.97516
H          4.09404        1.45926        0.73709
H          1.95993       -2.19331        1.01015
C          3.78628       -3.61733        2.38524
C          2.65268        4.61190       -1.44210
C          1.90202        4.45037       -0.29433
C          1.57017        3.18111        0.13856
C          1.98384        2.08654       -0.58298
C          2.74263        2.24231       -1.71972
C          3.08226        3.51247       -2.17238
H          2.91698        5.59974       -1.77919
H          1.58016        5.31188        0.26742
H          1.01149        3.03747        1.04839
H          3.06399        1.37067       -2.26608
C          3.91182        3.68700       -3.39552
Pd         0.06265        0.34813        1.74033
C          0.24329        2.27292       -3.90379
C         -1.38843       -0.61453       -4.33558
H          0.81238        3.20350       -3.91434
H          0.95902        1.45158       -3.94755
H         -0.36313        2.24172       -4.80972
H         -1.07365       -0.13109       -5.26116
H         -1.93728       -1.51914       -4.60097
H         -2.08321        0.05337       -3.82487
H         -0.84098       -4.65642       -3.57488
H         -2.16629       -5.45841       -2.72892
H         -2.40611       -3.85747       -3.42523
H         -6.93182       -1.62091       -1.32841
H         -7.67446       -0.13258       -0.73726
H         -6.36821       -0.05519       -1.91631
H          3.36545       -4.25689        1.60791
H          4.76188       -4.02285        2.65664
H          3.13928       -3.68198        3.26121
H          4.96527        3.80035       -3.13594
H          3.82005        2.82683       -4.06039
H          3.60496        4.57191       -3.95503
