59
-75.80328337
Cl         1.36379        0.75142        2.42188
P          1.46757        0.14334       -0.75683
P         -1.67069       -0.23052       -0.80730
C          0.53252        0.33500       -2.33630
H          0.23030        1.38164       -2.42382
H          1.20573        0.11762       -3.17141
C         -0.66839       -0.56545       -2.32074
H         -0.35963       -1.61304       -2.29975
H         -1.30386       -0.43003       -3.20147
C          2.45925       -1.42517       -0.74520
H          2.23704       -1.93723       -1.68911
C          2.84990        1.37105       -0.63590
H          2.94041        1.62439        0.42756
C         -2.95077       -1.53999       -0.49904
H         -2.97263       -1.68427        0.58817
C         -2.78510        1.23817       -1.04758
H         -2.68079        1.52913       -2.09981
C          3.92450       -0.94523       -0.70548
H          4.31365       -1.08780        0.31179
H          4.55331       -1.57855       -1.34898
C          4.06673        0.54998       -1.09508
H          4.16085        0.63881       -2.18643
H          4.99436        0.97572       -0.68252
C         -4.24942       -0.86480       -0.97051
H         -4.40291       -1.09662       -2.03371
H         -5.11643       -1.29562       -0.44638
C         -4.19231        0.67206       -0.77765
H         -4.47696        0.91652        0.25504
H         -4.93635        1.17551       -1.41335
C          2.08806       -2.30599        0.44336
H          0.99919       -2.42952        0.48268
H          2.34264       -1.77271        1.36933
C          2.60599        2.63283       -1.45617
H          2.48745        2.35356       -2.51109
H          1.64599        3.07636       -1.16388
C         -2.67443       -2.87132       -1.19184
H         -3.57689       -3.49543       -1.13053
H         -2.52476       -2.69098       -2.26403
C         -2.44140        2.41541       -0.13835
H         -3.26623        3.14091       -0.17096
H         -2.41219        2.06093        0.90034
C          2.76550       -3.66768        0.41201
H          2.48563       -4.28395        1.26944
H          3.85262       -3.57127        0.41871
H          2.49712       -4.21963       -0.49082
C          3.71638        3.66227       -1.30714
H          4.67543        3.26445       -1.64361
H          3.83952        3.95962       -0.26401
H          3.51689        4.56722       -1.88569
C         -1.49112       -3.62294       -0.60564
H         -1.33615       -4.58892       -1.09175
H         -1.63013       -3.80937        0.46097
H         -0.56912       -3.05422       -0.71445
C         -1.13773        3.10656       -0.49806
H         -0.29468        2.42232       -0.41273
H         -1.15451        3.47506       -1.52549
H         -0.93098        3.95788        0.15453
Cl        -1.83592       -0.17335        2.35653
Pd        -0.14209        0.07671        0.90967
