58
-89.86446776
P          1.66310       -0.00978        0.90224
C          1.97502        1.75968        0.80947
C          2.08456        2.33758       -0.43468
C          2.28583        3.69977       -0.55225
C          2.38101        4.47790        0.58389
C          2.28321        3.89516        1.83201
C          2.08218        2.53128        1.94480
H          2.01280        2.06939        2.91590
H          2.01118        1.71240       -1.30953
C          3.15099       -0.94271        0.54125
C          3.05823       -2.29683        0.31520
C          4.19915       -3.02293        0.02256
C          5.42287       -2.38579       -0.04137
C          5.50958       -1.02616        0.18517
C          4.36732       -0.30257        0.47687
H          4.41667        0.76063        0.64855
H          2.09390       -2.77837        0.36063
C          1.09674       -0.50974        2.57790
C         -0.19950        0.14962        3.02997
C         -1.45189       -0.52277        2.49491
P         -1.76083       -0.37270        0.68517
C         -3.04269       -1.58802        0.33473
C         -2.74259       -2.73952       -0.35686
C         -3.72681       -3.68367       -0.58678
C         -5.00532       -3.47514       -0.10928
C         -5.29886       -2.32970        0.60346
C         -4.31170       -1.38746        0.83120
H         -4.52317       -0.50054        1.40753
H         -1.73968       -2.89357       -0.72138
C         -2.25943        1.30527        0.25972
C         -1.35646        2.32386        0.46258
C         -1.68849        3.62330        0.12709
C         -2.92728        3.89546       -0.41752
C         -3.82616        2.87019       -0.63661
C         -3.48795        1.57175       -0.30108
H         -4.17171        0.76295       -0.49579
H         -0.37310        2.09393        0.83386
Pd         0.08601       -0.44809       -0.73320
Cl         1.78426       -0.36745       -2.20932
Cl        -1.41896       -0.94230       -2.33049
H         -1.42786       -1.59228        2.71382
H         -2.34838       -0.12634        2.97808
H         -0.23950        0.14662        4.13049
H         -0.19711        1.21018        2.75255
H          1.00066       -1.59700        2.58456
H          1.92460       -0.26670        3.24868
H          2.36602        4.15104       -1.52749
H          2.36314        4.50237        2.71873
H          4.13105       -4.08291       -0.15919
H          6.46380       -0.52836        0.13116
H         -3.49499       -4.57953       -1.13903
H         -6.29399       -2.17060        0.98519
H         -0.97504        4.41648        0.27889
H         -4.78806        3.07973       -1.07501
H          2.53608        5.54095        0.49664
H          6.31163       -2.95034       -0.27184
H         -5.77366       -4.20934       -0.28911
H         -3.18867        4.90701       -0.68234
