171
-217.84606521
P         -1.60296        0.45746       -0.35779
P          1.56049       -0.37515       -0.33508
C         -0.87740        1.42139       -1.69118
C          0.85298       -1.29576       -1.70630
C         -0.08683        0.81563       -2.66133
C          0.54333        1.62589       -3.62555
C          0.33330        2.99446       -3.60246
C         -0.47429        3.57343       -2.64707
C         -1.07169        2.78134       -1.68660
C          1.04728       -2.65518       -1.73302
C          0.47897       -3.41863       -2.73401
C         -0.30083       -2.81173       -3.69550
C         -0.51259       -1.44311       -3.68431
C          0.09113       -0.66122       -2.68060
Cl         1.61423        0.52263        2.79016
Cl        -1.55474       -0.24926        2.93509
C         -1.36176       -0.82606       -4.74033
C          1.42038        1.04094       -4.67675
H         -0.63600        4.63898       -2.64692
H         -1.69587        3.22774       -0.92994
H          1.64540       -3.12118       -0.96625
H          0.64213       -4.48350       -2.76168
H          0.81249        3.60864       -4.34620
H         -0.75757       -3.40413       -4.47036
C         -3.72191       -3.36979       -1.50608
C         -2.76350       -3.40535       -0.50054
C         -2.10783       -2.22204       -0.19100
C         -2.40145       -1.06288       -0.86508
C         -3.35371       -1.04154       -1.85395
C         -4.03855       -2.20325       -2.19246
H         -4.25480       -4.26822       -1.75428
H         -1.37708       -2.19887        0.59908
H         -3.56623       -0.10707       -2.34474
C         -4.46100        2.90572        2.17244
C         -4.96470        1.85351        1.41701
C         -4.07223        1.12649        0.64001
C         -2.74023        1.45554        0.61488
C         -2.26088        2.50114        1.36375
C         -3.11200        3.24166        2.17234
H         -5.14265        3.46845        2.78191
H         -4.40713        0.28756        0.05657
H         -1.20928        2.73001        1.32906
C          4.26810       -3.09650        2.08158
C          2.89434       -3.18996        2.26632
C          2.08058       -2.36398        1.50193
C          2.62919       -1.45753        0.62838
C          3.99015       -1.36160        0.47833
C          4.84101       -2.18771        1.20096
H          4.91241       -3.75031        2.63973
H          1.00998       -2.41125        1.59578
H          4.38390       -0.63154       -0.20557
C          3.90513        3.32419       -1.46973
C          2.94883        3.41018       -0.46519
C          2.23065        2.26376       -0.15729
C          2.45967        1.09147       -0.83268
C          3.40518        1.02197       -1.82624
C          4.15474        2.14425       -2.16119
H          4.48889        4.19180       -1.71297
H          1.50008        2.28013        0.63308
H          3.55785        0.08202       -2.32849
Pd        -0.02964        0.10814        1.31823
C         -0.95636       -5.04010        0.08717
C         -2.43630       -4.67459        0.29838
C         -3.30118       -5.86957       -0.14562
C         -2.70072       -4.41023        1.79308
H         -0.30145       -4.21821        0.37120
H         -0.67949       -5.91205        0.67943
H         -0.76546       -5.27054       -0.96010
H         -3.05744       -6.75925        0.43499
H         -4.36126       -5.66152       -0.00165
H         -3.13399       -6.10586       -1.19635
H         -2.47590       -5.29251        2.39203
H         -2.09091       -3.58884        2.16647
H         -3.74546       -4.14733        1.95731
C         -5.32463       -0.84443       -3.91911
C         -5.16078       -2.21836       -3.24018
C         -6.48811       -2.57835       -2.54720
C         -4.84300       -3.26636       -4.32330
H         -4.40590       -0.53931       -4.41839
H         -6.11369       -0.87616       -4.67031
H         -5.59357       -0.07745       -3.19303
H         -6.43880       -3.56446       -2.08674
H         -6.72231       -1.85635       -1.76529
H         -7.31227       -2.58314       -3.26031
H         -3.88723       -3.05396       -4.80031
H         -4.78917       -4.26949       -3.90231
H         -5.61126       -3.27244       -5.09632
C         -7.28466        2.73597        1.04640
C         -6.45957        1.50873        1.47540
C         -6.82938        1.10901        2.91521
C         -6.80868        0.33598        0.53680
H         -8.35111        2.51135        1.05576
H         -7.11709        3.58041        1.71379
H         -7.01415        3.04744        0.03762
H         -7.88260        0.83821        2.98722
H         -6.23704        0.25384        3.24019
H         -6.64605        1.92624        3.61183
H         -7.87404        0.10997        0.57917
H         -6.56305        0.57594       -0.49759
H         -6.26954       -0.56803        0.81967
C         -2.19868        5.56596        2.06237
C         -2.54483        4.40050        3.00437
C         -1.27330        3.93608        3.74454
C         -3.55861        4.89207        4.05568
H         -1.77083        6.40257        2.61444
H         -1.47796        5.25580        1.30730
H         -3.08956        5.92094        1.54461
H         -1.48259        3.05741        4.35424
H         -0.47470        3.67867        3.05047
H         -0.89553        4.72043        4.40004
H         -3.12126        5.67117        4.67996
H         -4.44573        5.31326        3.58355
H         -3.86820        4.07641        4.70893
C          0.81670       -3.92519        3.53515
C          2.31352       -4.18991        3.27635
C          3.05490       -4.06278        4.62163
C          2.48025       -5.61438        2.72145
H          0.65307       -2.90084        3.86989
H          0.22692       -4.09219        2.63611
H          0.43139       -4.59343        4.30503
H          4.10719       -4.32656        4.52709
H          2.99570       -3.04116        4.99656
H          2.61730       -4.72252        5.37067
H          2.07149       -6.35306        3.41068
H          1.96347       -5.71891        1.76753
H          3.53172       -5.84994        2.55914
C          6.99212       -1.78162        2.42358
C          6.36754       -2.11389        1.05597
C          6.79012       -1.02415        0.05045
C          6.89669       -3.47065        0.55696
H          6.76772       -2.55241        3.15987
H          8.07618       -1.69869        2.34777
H          6.60629       -0.83521        2.80199
H          7.87544       -0.97861       -0.03826
H          6.38710       -1.22799       -0.94134
H          6.44380       -0.04132        0.36983
H          7.97841       -3.44354        0.42661
H          6.66555       -4.26902        1.26119
H          6.44730       -3.72952       -0.40163
C          3.61293        5.84169       -0.10466
C          2.67375        4.69821        0.32297
C          2.88232        4.42954        1.82589
C          1.22054        5.13771        0.07530
H          3.40828        6.74501        0.46993
H          4.65643        5.57412        0.06064
H          3.48030        6.08505       -1.15868
H          3.89800        4.08440        2.01754
H          2.71607        5.33396        2.41076
H          2.19657        3.66705        2.19306
H          0.52060        4.35769        0.37100
H          0.98164        6.03798        0.64113
H          1.05882        5.34938       -0.98100
C          5.05910        3.19473       -4.26173
C          5.28104        2.09666       -3.20417
C          5.33837        0.73254       -3.91954
C          6.62746        2.33034       -2.49464
H          4.09177        3.07684       -4.74788
H          5.08944        4.18841       -3.81684
H          5.82945        3.15420       -5.03166
H          5.54649       -0.07244       -3.21518
H          4.39930        0.51289       -4.42574
H          6.12841        0.72286       -4.67032
H          6.65092        3.30276       -2.00389
H          6.79932        1.56878       -1.73448
H          7.45447        2.29267       -3.20345
H         -1.73151        0.15319       -4.43316
H          2.31071        1.65250       -4.82213
H         -2.22754       -1.45158       -4.95785
H         -0.80142       -0.70165       -5.66780
H          0.89801        0.98313       -5.63255
H          1.75027        0.03632       -4.40892
