171
-217.84732436
P         -1.57419        0.37552       -0.30962
P          1.63963       -0.48647       -0.30115
C         -0.83134        1.27743       -1.67064
C          0.87872       -1.45938       -1.60833
C         -0.07981        0.61311       -2.63290
C          0.52928        1.36656       -3.65460
C          0.34276        2.73888       -3.68599
C         -0.41910        3.37599       -2.72913
C         -1.00140        2.63910       -1.71614
C          1.04211       -2.82279       -1.56285
C          0.40977       -3.63149       -2.48625
C         -0.40104       -3.06407       -3.44591
C         -0.58235       -1.69248       -3.50843
C          0.08107       -0.86582       -2.58116
Cl         1.53822        0.22980        2.92801
Cl        -1.60515       -0.67363        2.82188
C         -1.47953       -1.12591       -4.55275
C          1.34619        0.70992       -4.71203
H         -0.56085        4.44340       -2.77253
H         -1.59283        3.12549       -0.95665
H          1.66523       -3.25884       -0.79898
H          0.54395       -4.70026       -2.45054
H          0.80367        3.31045       -4.47384
H         -0.91002       -3.69031       -4.15920
C         -4.01547       -3.19398       -1.62489
C         -3.01899       -3.37469       -0.67391
C         -2.28534       -2.26163       -0.28575
C         -2.52304       -1.03807       -0.85937
C         -3.49065       -0.88106       -1.82109
C         -4.26809       -1.96286       -2.21814
H         -4.62758       -4.03421       -1.89558
H         -1.52937       -2.33714        0.47604
H         -3.63506        0.09414       -2.25407
C         -4.20059        3.12819        2.17011
C         -4.79516        2.27809        1.24534
C         -3.96702        1.44540        0.50616
C         -2.60545        1.47661        0.67526
C         -2.03483        2.32762        1.58979
C         -2.82637        3.15626        2.37485
H         -4.81822        3.78681        2.75084
H         -4.39240        0.75829       -0.20342
H         -0.96529        2.32675        1.70278
C          4.59883       -2.90057        2.14282
C          3.24695       -3.21213        2.23262
C          2.35938       -2.47951        1.45670
C          2.80994       -1.46878        0.64493
C          4.14704       -1.16681        0.57624
C          5.07313       -1.88373        1.32285
H          5.30655       -3.45409        2.73075
H          1.30318       -2.68610        1.50162
H          4.46059       -0.35597       -0.05662
C          3.66088        3.38213       -1.48471
C          2.73115        3.39454       -0.45204
C          2.10796        2.19711       -0.12955
C          2.40132        1.04800       -0.82064
C          3.32593        1.04944       -1.83576
C          3.98134        2.22484       -2.18479
H          4.16793        4.29214       -1.74462
H          1.40533        2.15387        0.68486
H          3.53995        0.12245       -2.33984
Pd         0.00143       -0.16178        1.32936
C         -1.51840       -4.76983        0.82983
C         -2.78336       -4.75730       -0.05153
C         -2.60151       -5.80300       -1.16818
C         -3.99665       -5.12931        0.81782
H         -1.62199       -4.09662        1.68048
H         -1.33052       -5.76837        1.22407
H         -0.64330       -4.46836        0.25487
H         -2.38517       -6.78585       -0.74984
H         -3.49795       -5.89452       -1.77986
H         -1.77608       -5.52636       -1.82314
H         -3.85921       -6.10483        1.28389
H         -4.14240       -4.39366        1.60866
H         -4.90904       -5.16608        0.22336
C         -6.75635       -1.94807       -2.43990
C         -5.43075       -1.81087       -3.20980
C         -5.34793       -2.90350       -4.29361
C         -5.40671       -0.43600       -3.90681
H         -6.83472       -1.18203       -1.66860
H         -7.61019       -1.84281       -3.10897
H         -6.82786       -2.92034       -1.95319
H         -4.39492       -2.85893       -4.81905
H         -5.44849       -3.90010       -3.86626
H         -6.14242       -2.78073       -5.02956
H         -6.21065       -0.35966       -4.63878
H         -5.54193        0.37270       -3.18934
H         -4.46491       -0.27770       -4.43112
C         -7.06545        3.21057        1.92346
C         -6.31297        2.21083        1.02482
C         -6.80754        0.78914        1.35158
C         -6.62760        2.54200       -0.44605
H         -6.75417        4.23449        1.71727
H         -8.14017        3.15164        1.75168
H         -6.88853        3.00021        2.97807
H         -7.88622        0.71025        1.21757
H         -6.33650        0.04788        0.70701
H         -6.57460        0.52900        2.38388
H         -6.26138        3.53557       -0.70378
H         -6.15911        1.82752       -1.12167
H         -7.70151        2.51901       -0.63036
C         -0.73296        3.76958        3.68400
C         -2.22225        4.08443        3.43873
C         -2.96978        3.90040        4.77395
C         -2.35246        5.54161        2.96459
H         -0.33181        4.38946        4.48557
H         -0.59529        2.72647        3.96876
H         -0.13849        3.96521        2.79391
H         -4.01614        4.19073        4.69193
H         -2.93320        2.85891        5.09293
H         -2.52048        4.50910        5.55844
H         -3.39736        5.81347        2.81764
H         -1.92450        6.22972        3.69339
H         -1.83345        5.68606        2.01720
C          3.81445       -4.93245        4.02132
C          2.70265       -4.31280        3.15345
C          2.07268       -5.42224        2.29300
C          1.63464       -3.71070        4.08800
H          4.57639       -5.40796        3.40408
H          4.29370       -4.17540        4.64182
H          3.40691       -5.69488        4.68509
H          1.25875       -5.03147        1.68448
H          2.81278       -5.85583        1.62070
H          1.67157       -6.22109        2.91646
H          2.05264       -2.89005        4.67048
H          0.78643       -3.32082        3.52683
H          1.25564       -4.46035        4.78219
C          7.34572       -2.81927        0.81854
C          6.57487       -1.56762        1.27648
C          7.04757       -1.14880        2.68044
C          6.88349       -0.41915        0.29461
H          8.41494       -2.61755        0.75585
H          7.20355       -3.64821        1.51083
H          7.00485       -3.14218       -0.16501
H          6.49418       -0.27634        3.02736
H          6.89722       -1.94921        3.40392
H          8.10798       -0.89716        2.67650
H          6.37658        0.49877        0.59193
H          7.95280       -0.21015        0.26693
H          6.57123       -0.67446       -0.71786
C          3.22474        5.86942       -0.10741
C          2.40318        4.65379        0.36212
C          2.72547        4.39116        1.84561
C          0.90889        4.98654        0.20378
H          2.97989        6.75214        0.48325
H          4.29360        5.68602        0.00073
H          3.01716        6.10348       -1.15142
H          3.78168        4.15499        1.97282
H          2.49845        5.26509        2.45586
H          2.15055        3.55257        2.23568
H          0.63431        5.85187        0.80664
H          0.67558        5.21345       -0.83561
H          0.28261        4.15041        0.50973
C          5.26577        0.89272       -3.93397
C          5.07393        2.26676       -3.26270
C          6.40758        2.67609       -2.61002
C          4.69137        3.29394       -4.34447
H          5.57264        0.14060       -3.20741
H          4.34717        0.55525       -4.41188
H          6.03790        0.94202       -4.70164
H          6.34022        3.66532       -2.15874
H          6.68565        1.97039       -1.82755
H          7.21149        2.69869       -3.34556
H          3.73120        3.04446       -4.79384
H          4.61321        4.29778       -3.92892
H          5.43812        3.32046       -5.13786
H         -1.73796       -0.08790       -4.33952
H          0.74063        0.49158       -5.59244
H         -2.40986       -1.69128       -4.60824
H         -1.00747       -1.16353       -5.53543
H          1.77627       -0.22734       -4.35605
H          2.16821        1.35252       -5.02756
