111
-148.55330095
P         -2.23718        2.46228        0.18079
P         -0.21913        0.04749        0.55195
C         -1.81861        1.88966        1.84550
C         -0.92985        0.84951        2.00351
C         -2.07512        4.30395        0.07171
C         -0.84953        4.70756       -0.71917
C         -2.35477        2.51551        2.95245
H         -3.04907        3.32937        2.81929
C         -1.99251        2.09783        4.22145
H         -2.41082        2.58459        5.08729
C         -1.08721        1.06591        4.37861
H         -0.79581        0.74821        5.36621
C         -0.54966        0.44378        3.26598
H          0.17743       -0.34607        3.37300
Pd        -0.94870        1.24561       -1.30064
Cl        -1.96985        2.45961       -2.89220
Cl         0.44908        0.09589       -2.62747
C         -3.41484        4.73345       -0.55418
C         -4.02764        2.26834       -0.24336
H         -0.75422        5.79401       -0.78200
H          0.06248        4.31258       -0.26639
H         -0.90127        4.32227       -1.73859
H         -3.28720        4.80533       -1.64306
H         -3.68743        5.74630       -0.22088
H         -4.05116        1.86256       -1.26366
C         -4.54809        3.71753       -0.23375
C         -4.72799        1.33460        0.72068
H         -2.00306        4.66561        1.10577
H         -4.96788        3.93681        0.75755
H         -5.38540        3.82797       -0.93947
H         -5.78350        1.21537        0.46524
H         -4.26434        0.34506        0.72107
H         -4.67690        1.71922        1.74063
C         -1.31183       -4.37283        0.17949
C         -0.68497       -3.69302       -0.89724
C         -0.40356       -2.34733       -0.74223
C         -0.64020       -1.69447        0.43875
C         -1.13935       -2.37736        1.51778
C         -1.44564       -3.72591        1.43674
O         -1.87149       -5.66057       -0.02304
C         -0.28993       -4.35828       -2.22679
H         -0.00686       -1.77736       -1.56395
H         -1.30418       -1.84093        2.43488
C         -1.89591       -4.43988        2.72318
C          4.21142        0.99703        0.18122
C          3.77979       -0.34460        0.01775
C          2.42803       -0.61787        0.14076
C          1.53827        0.36550        0.48277
C          1.96322        1.64163        0.74633
C          3.30231        1.98176        0.64697
O          5.53826        1.36575       -0.16563
C          4.73769       -1.48993       -0.34423
H          2.04683       -1.60417       -0.05489
H          1.22434        2.37641        1.01803
C          3.73722        3.41119        1.00465
C          1.15280       -3.94886       -2.59842
C         -0.31248       -5.89425       -2.14360
C         -1.24545       -3.88741       -3.33572
C         -3.33316       -4.01597        3.06767
C         -1.82692       -5.97190        2.59745
C         -0.96021       -4.04229        3.88670
C         -3.21881       -5.61209       -0.46272
H          1.23829       -2.87824       -2.77592
H          1.84465       -4.21630       -1.80081
H          1.47790       -4.45450       -3.50723
H          0.06326       -6.34298       -3.06285
H          0.30566       -6.24319       -1.31714
H         -1.32179       -6.26626       -1.98504
H         -0.97581       -4.32803       -4.29511
H         -2.27351       -4.16779       -3.11470
H         -1.21229       -2.80368       -3.44361
H         -4.02650       -4.29550        2.27684
H         -3.66807       -4.48947        3.99022
H         -3.39928       -2.93660        3.20130
H         -2.05521       -6.45487        3.54729
H         -2.53883       -6.33998        1.86257
H         -0.83184       -6.28737        2.28573
H         -1.20669       -4.59879        4.79062
H          0.07839       -4.25434        3.63430
H         -1.03958       -2.98360        4.12769
H         -3.83580       -5.10465        0.27686
H         -3.28563       -5.07102       -1.40514
H         -3.58774       -6.62827       -0.60347
C          5.68676        1.76635       -1.52218
C          4.79096       -1.63608       -1.87275
C          6.14961       -1.23963        0.21583
C          4.24527       -2.82230        0.26516
C          3.64075        4.30034       -0.24433
C          2.82086        3.99948        2.10212
C          5.17263        3.43114        1.56064
H          5.45235       -2.45114       -2.16528
H          3.79954       -1.84408       -2.27439
H          5.15155       -0.72396       -2.34267
H          6.80671       -2.08520        0.01397
H          6.60362       -0.35800       -0.22904
H          6.11314       -1.08799        1.29407
H          4.97863       -3.61327        0.10978
H          4.08402       -2.72082        1.33802
H          3.31465       -3.15628       -0.18971
H          2.62381        4.30726       -0.63548
H          3.92155        5.32790       -0.01476
H          4.29577        3.94201       -1.03473
H          2.76503        3.32986        2.96001
H          3.20177        4.95913        2.45076
H          1.80996        4.17159        1.73589
H          5.25982        2.76898        2.42141
H          5.45760        4.43506        1.87435
H          5.89177        3.10348        0.81402
H          6.37999        1.09586       -2.02965
H          4.72258        1.74464       -2.03189
H          6.09729        2.77522       -1.56212
