87
-129.18672400
P         -1.59866       -0.33345       -0.34680
P          1.71930        0.40791        0.05754
C         -1.24057        0.92420       -1.57930
C          1.55840       -0.69837       -1.36218
C         -0.17213        0.75840       -2.45288
C          0.09411        1.76899       -3.39790
C         -0.71780        2.89044       -3.43479
C         -1.77324        3.03462       -2.55944
C         -2.03141        2.04586       -1.63080
C          2.31175       -1.84760       -1.32257
C          2.19075       -2.80007       -2.31500
C          1.29720       -2.60068       -3.34431
C          0.52003       -1.45681       -3.40227
C          0.65729       -0.47574       -2.40137
Cl         1.09384        0.33568        3.21588
Cl        -1.46614       -1.56201        2.60214
H         -2.39208        3.91612       -2.59683
H         -2.85652        2.14796       -0.94559
H          2.99649       -2.00531       -0.50565
H          2.78375       -3.69918       -2.27776
H         -0.51040        3.66051       -4.15832
H          1.18905       -3.34503       -4.11493
C         -2.09879       -4.40909       -2.28241
C         -1.20371       -4.26194       -1.23156
C         -1.08640       -3.01447       -0.63103
C         -1.82203       -1.94725       -1.09084
C         -2.70046       -2.09771       -2.13787
C         -2.84391       -3.33716       -2.73371
H         -2.20712       -5.37450       -2.74658
C         -0.40747       -5.41597       -0.73343
H         -0.41043       -2.87965        0.19648
H         -3.25978       -1.24457       -2.48882
H         -3.53184       -3.46398       -3.55349
C         -5.21851        0.87565        2.13963
C         -5.27169       -0.26572        1.36394
C         -4.17905       -0.63302        0.60145
C         -3.04378        0.14233        0.61990
C         -2.98703        1.27724        1.39575
C         -4.07838        1.66697        2.16193
H         -6.06515        1.15862        2.74165
H         -6.16155       -0.87362        1.35749
H         -4.20242       -1.52728        0.00062
H         -2.08680        1.86801        1.41166
C         -3.99967        2.87899        3.02173
C          5.59343       -0.42454        2.29913
C          5.47837        0.70893        1.51889
C          4.29897        0.96561        0.84525
C          3.24612        0.08722        0.95372
C          3.35903       -1.04281        1.73057
C          4.53313       -1.31159        2.42348
H          6.51191       -0.62790        2.82289
H          6.30639        1.39367        1.43526
H          4.19375        1.84903        0.23707
H          2.52329       -1.71780        1.81569
C          4.65207       -2.54130        3.25321
C          1.13349        4.82315       -0.83644
C          2.03818        4.09111       -1.58072
C          2.23356        2.75017       -1.30616
C          1.52262        2.15637       -0.29025
C          0.64216        2.88954        0.47158
C          0.42909        4.23623        0.20585
H          0.96658        5.86277       -1.06121
H          2.58197        4.56063       -2.38394
H          2.91997        2.15825       -1.89067
H          0.12588        2.41740        1.28950
C         -0.57085        5.00984        0.99057
Pd        -0.04674       -0.30969        1.39354
C          1.22668        1.65636       -4.35840
C         -0.44417       -1.29194       -4.52562
H          1.78579        2.59159       -4.41184
H          1.92507        0.87249       -4.06328
H          0.86432        1.42510       -5.36079
H          0.07099       -0.99602       -5.44021
H         -0.97171       -2.22577       -4.72492
H         -1.19502       -0.53395       -4.30020
H         -0.21743       -6.13712       -1.52964
H          0.55866       -5.08723       -0.34735
H         -0.93397       -5.93109        0.07115
H         -3.54609        2.63998        3.98461
H         -3.39655        3.65595        2.54959
H         -4.99009        3.29605        3.20923
H          3.71015       -2.76468        3.75643
H          4.91713       -3.40112        2.63633
H          5.41845       -2.42776        4.02117
H         -0.62674        4.64898        2.01866
H         -0.31262        6.06915        1.02424
H         -1.56367        4.91791        0.54759
