111
-148.54936797
P         -2.58999        2.09055        0.88836
P          0.10461        0.44248        0.46113
C         -1.51473        1.69918        2.30448
C         -0.32512        1.03313        2.10373
C         -3.61250        3.59024        1.28752
C         -3.57185        4.63137        0.19216
C         -1.89045        2.04797        3.58715
H         -2.83416        2.54005        3.75317
C         -1.06647        1.74489        4.65743
H         -1.36184        2.01929        5.65702
C          0.13085        1.08884        4.44786
H          0.77134        0.85070        5.28107
C          0.49999        0.72631        3.16530
H          1.42127        0.19482        2.98340
Pd        -1.23627        1.66591       -0.96220
Cl        -2.51469        3.09354       -2.11510
Cl        -0.00778        0.98015       -2.71243
C         -5.01700        2.99541        1.51837
C         -3.93337        0.83257        0.67117
H         -2.54639        4.93334       -0.03196
H         -4.00745        4.23614       -0.72653
H         -4.13775        5.52523        0.46462
H         -5.78035        3.73788        1.24327
H         -5.16993        2.79744        2.58941
H         -3.79184        0.38242       -0.32120
C         -5.22118        1.67918        0.71832
C         -3.85757       -0.22812        1.74785
H         -3.20282        4.01312        2.21423
H         -6.03696        1.08355        1.15324
H         -5.54486        1.92290       -0.30428
H         -3.96862        0.21909        2.73748
H         -4.64481       -0.97667        1.63092
H         -2.89593       -0.74459        1.72744
C         -1.20977       -3.88854       -0.06544
C         -1.02257       -3.36666        1.24223
C         -0.61648       -2.04900        1.36978
C         -0.47524       -1.24195        0.27163
C         -0.76716       -1.70939       -0.98145
C         -1.18394       -3.01309       -1.18332
O         -1.33392       -5.28783       -0.26281
C         -1.24518       -4.17597        2.53062
H         -0.39216       -1.64002        2.33966
H         -0.64104       -1.03993       -1.81466
C         -1.60124       -3.41780       -2.60664
C          4.55081        0.53941       -0.50109
C          3.94133       -0.66482       -0.06556
C          2.58477       -0.64776        0.20930
C          1.85984        0.51268        0.13262
C          2.46391        1.70027       -0.18452
C          3.81837        1.75453       -0.47214
O          5.88028        0.52118       -1.00057
C          4.70977       -1.98857        0.07086
H          2.06641       -1.55389        0.47149
H          1.85437        2.58666       -0.22204
C          4.46002        3.11434       -0.78951
C         -2.07820       -3.33860        3.52661
C         -2.02504       -5.47785        2.27790
C          0.11618       -4.50632        3.16501
C         -2.37583       -4.74659       -2.63375
C         -2.53734       -2.33579       -3.19061
C         -0.34999       -3.53163       -3.49317
C         -0.08218       -5.92757       -0.44962
H         -1.55205       -2.43896        3.84143
H         -3.02398       -3.03686        3.07767
H         -2.30221       -3.91386        4.42456
H         -2.96245       -5.27029        1.76305
H         -1.45238       -6.16754        1.66244
H         -2.25587       -5.98566        3.21407
H          0.67090       -3.59658        3.39304
H         -0.01138       -5.06315        4.09295
H          0.72711       -5.10755        2.49428
H         -2.74452       -4.96613       -3.63545
H         -1.74488       -5.57710       -2.32612
H         -3.22932       -4.70752       -1.95780
H         -2.02686       -1.38227       -3.31500
H         -2.91139       -2.63295       -4.16990
H         -3.39460       -2.17574       -2.53729
H         -0.61998       -3.79436       -4.51561
H          0.19375       -2.58785       -3.52196
H          0.32968       -4.29479       -3.11896
H          0.54802       -5.77957        0.42585
H         -0.24299       -6.99505       -0.60171
H          0.42425       -5.51221       -1.31933
C          5.96940        0.28560       -2.40030
C          4.64874       -2.75009       -1.26213
C          6.17368       -1.74110        0.47709
C          4.08005       -2.87455        1.17100
C          4.35229        3.38506       -2.29794
C          3.73485        4.25031       -0.03266
C          5.93375        3.15158       -0.34572
H          3.61541       -2.95698       -1.54015
H          5.09798       -2.17347       -2.06701
H          5.17686       -3.70078       -1.19342
H          6.70132       -2.68156        0.63396
H          6.71018       -1.18703       -0.28899
H          6.22320       -1.16600        1.40110
H          3.98617       -2.32341        2.10636
H          3.09306       -3.23509        0.88439
H          4.69709       -3.75258        1.36054
H          4.78533        4.35178       -2.55347
H          4.87033        2.62203       -2.87366
H          3.30961        3.38698       -2.61486
H          2.72312        4.40194       -0.40571
H          3.67944        4.03199        1.03350
H          4.26435        5.19508       -0.15369
H          6.36815        4.13713       -0.51144
H          6.53322        2.43177       -0.89722
H          6.02108        2.91619        0.71444
H          4.97377        0.16707       -2.82983
H          6.47559        1.12273       -2.88071
H          6.55440       -0.61550       -2.58350
