111
-148.54856807
P         -2.41060        2.27661       -0.15648
P         -0.15075        0.14974        0.48308
C         -1.86785        2.03180        1.55204
C         -0.88153        1.11007        1.82431
C         -2.50906        4.08074       -0.55341
C         -1.69268        4.40515       -1.78549
C         -2.40654        2.78837        2.57285
H         -3.16774        3.51813        2.34977
C         -1.95627        2.61444        3.87017
H         -2.37775        3.20287        4.66874
C         -0.96008        1.69592        4.14015
H         -0.60195        1.56728        5.14832
C         -0.41574        0.94661        3.11251
H          0.38141        0.24498        3.30335
Pd        -1.05977        0.97591       -1.49296
Cl        -2.26876        1.49739       -3.30594
Cl         0.50505       -0.18680       -2.61741
C         -4.02386        4.31906       -0.72358
C         -4.16053        1.76927       -0.48115
H         -1.73176        5.47062       -2.02438
H         -0.64472        4.12583       -1.65373
H         -2.07142        3.85909       -2.65115
H         -4.18874        5.11758       -1.46164
H         -4.45235        4.69349        0.21771
H         -4.11388        0.92987       -1.18872
C         -4.76797        3.02129       -1.14678
C         -4.85875        1.34528        0.79297
H         -2.11608        4.61942        0.31967
H         -5.83719        3.08810       -0.89827
H         -4.72352        2.91903       -2.24115
H         -5.88201        1.01541        0.59825
H         -4.32662        0.52665        1.28365
H         -4.91072        2.17534        1.49928
C         -1.03601       -4.31790        0.80967
C         -0.50020       -3.78112       -0.38797
C         -0.26229       -2.41925       -0.44385
C         -0.47191       -1.60984        0.64139
C         -0.90257       -2.14137        1.82927
C         -1.15446       -3.49697        1.96012
O         -1.48445       -5.66523        0.84690
C         -0.21835       -4.64056       -1.63066
H          0.07526       -1.95748       -1.35413
H         -1.05687       -1.47633        2.65924
C         -1.57564       -4.04917        3.33160
C          4.23057        1.31153        0.07761
C          3.22245        2.30619        0.15288
C          1.90876        1.89608        0.31010
C          1.58081        0.56516        0.32564
C          2.53720       -0.39878        0.14669
C          3.86909       -0.05701       -0.01902
O          5.60094        1.68212        0.12720
C          3.53193        3.80972        0.08359
H          1.11476        2.61481        0.42484
H          2.22558       -1.42805        0.13164
C          4.89949       -1.16324       -0.29530
C         -1.47788       -4.69013       -2.50877
C          0.93569       -4.03843       -2.46403
C          0.21241       -6.06444       -1.23473
C         -3.10583       -3.99327        3.45528
C         -1.07878       -5.49354        3.52477
C         -0.95934       -3.20686        4.47221
C         -2.85274       -5.83262        0.49672
H         -1.76956       -3.68703       -2.81925
H         -1.30551       -5.28434       -3.40573
H         -2.31648       -5.12710       -1.97225
H          1.81777       -3.88196       -1.84499
H          1.21405       -4.70657       -3.27862
H          0.65730       -3.08654       -2.91350
H         -0.58239       -6.58885       -0.71039
H          0.47179       -6.65400       -2.11372
H          1.08154       -6.03347       -0.57846
H         -3.46347       -2.96919        3.35022
H         -3.58644       -4.59167        2.68523
H         -3.43300       -4.36736        4.42507
H         -1.32166       -5.86160        4.52129
H         -1.53334       -6.16980        2.80527
H          0.00186       -5.54763        3.39718
H         -1.38637       -2.20582        4.51132
H         -1.14632       -3.67121        5.44023
H          0.11943       -3.11602        4.34771
H         -2.93104       -6.49049       -0.36865
H         -3.38832       -6.29641        1.32489
H         -3.30682       -4.86875        0.26344
C          6.14102        1.73728        1.44141
C          4.75512        4.08357       -0.81011
C          2.34322        4.58258       -0.53278
C          3.78075        4.34314        1.50242
C          4.23869       -2.35122       -1.03037
C          6.03149       -0.64783       -1.20260
C          5.47519       -1.67050        1.03519
H          4.93480        5.15355       -0.91173
H          5.65625        3.63671       -0.39774
H          4.60246        3.66874       -1.80589
H          1.47390        4.57649        0.12317
H          2.60679        5.62612       -0.70340
H          2.05533        4.14939       -1.49035
H          4.62273        3.83933        1.97102
H          3.99396        5.41165        1.48625
H          2.90637        4.18258        2.13280
H          4.98815       -3.07453       -1.35083
H          3.53833       -2.88095       -0.38638
H          3.70349       -2.00858       -1.91570
H          6.72752       -1.44761       -1.45421
H          5.62564       -0.24628       -2.13054
H          6.59967        0.14225       -0.71776
H          6.19903       -2.46782        0.86839
H          4.68308       -2.06145        1.67341
H          5.97460       -0.87235        1.57881
H          6.49007        2.74801        1.65175
H          5.38637        1.45263        2.17567
H          6.99325        1.06178        1.51397
