111
-148.55229318
P         -2.57085        2.04990        0.81335
P          0.15587        0.45401        0.48504
C         -1.46319        1.83634        2.23752
C         -0.26366        1.17617        2.08068
C         -3.53375        3.62503        0.96274
C         -3.41531        4.46826       -0.28737
C         -1.82216        2.31786        3.48068
H         -2.76900        2.81662        3.60650
C         -0.97293        2.14427        4.56003
H         -1.25343        2.52105        5.53007
C          0.23087        1.48622        4.39701
H          0.89061        1.34835        5.23779
C          0.58441        0.99571        3.15303
H          1.51286        0.46481        3.01063
Pd        -1.28449        1.46456       -1.01753
Cl        -2.94860        2.14432       -2.35398
Cl         0.09460        0.82038       -2.67266
C         -4.96618        3.12631        1.24696
C         -3.95012        0.81655        0.78207
H         -3.83692        3.94295       -1.14534
H         -3.95214        5.41449       -0.18630
H         -2.37148        4.69299       -0.51855
H         -5.69229        3.84033        0.83150
H         -5.15062        3.11442        2.33127
H         -3.81229        0.20828       -0.12265
C         -5.20742        1.70296        0.66930
C         -3.91695       -0.05808        2.01622
H         -3.12301        4.16868        1.82396
H         -6.04882        1.21393        1.18152
H         -5.51013        1.78648       -0.38494
H         -2.96875       -0.59438        2.09308
H         -4.02728        0.54536        2.91918
H         -4.72295       -0.79577        2.00842
C         -1.20616       -3.88862        0.26699
C         -1.04643       -3.27174        1.53478
C         -0.61618       -1.95583        1.57569
C         -0.41789       -1.24284        0.42281
C         -0.67357       -1.80348       -0.80006
C         -1.10877       -3.11095       -0.91477
O         -1.42213       -5.28974        0.18161
C         -1.29521       -4.02206        2.85268
H         -0.41904       -1.46947        2.51454
H         -0.51167       -1.19814       -1.67473
C         -1.43787       -3.66063       -2.31101
C          4.54431        0.75380       -0.69237
C          3.81928       -0.43854       -0.94362
C          2.48690       -0.48293       -0.57202
C          1.89490        0.56569        0.08146
C          2.61658        1.68178        0.41464
C          3.95753        1.78861        0.08137
O          5.83941        0.92808       -1.24858
C          4.43261       -1.65854       -1.64815
H          1.88264       -1.34110       -0.80753
H          2.11147        2.47705        0.93517
C          4.74415        3.02860        0.53477
C         -1.73279       -3.04554        3.96805
C         -2.42465       -5.05628        2.69486
C          0.00163       -4.71761        3.29312
C         -1.99161       -2.53675       -3.21793
C         -0.15805       -4.22144       -2.94963
C         -2.52115       -4.75178       -2.23966
C         -0.22689       -6.05171        0.06537
H         -2.01471       -3.59014        4.86890
H         -0.93110       -2.36298        4.24591
H         -2.59314       -2.45636        3.65291
H         -2.64555       -5.54335        3.64431
H         -3.33625       -4.57742        2.33886
H         -2.15510       -5.83209        1.98242
H         -0.13953       -5.24677        4.23522
H          0.33401       -5.43844        2.55005
H          0.80128       -3.99010        3.43066
H         -1.22931       -1.79728       -3.45809
H         -2.35023       -2.94336       -4.16311
H         -2.82414       -2.02462       -2.73620
H          0.59690       -3.44156       -3.04698
H          0.26722       -5.01973       -2.34574
H         -0.35999       -4.62061       -3.94321
H         -3.41695       -4.37087       -1.75032
H         -2.79853       -5.09446       -3.23620
H         -2.17782       -5.61693       -1.67835
H         -0.22590       -6.59237       -0.88085
H          0.64641       -5.39975        0.11187
H         -0.17991       -6.78084        0.87416
C          5.83670        1.52487       -2.53945
C          3.76294       -2.96424       -1.15956
C          4.20910       -1.53108       -3.16276
C          5.93540       -1.78320       -1.33960
C          6.22621        2.68882        0.77680
C          4.62050        4.12751       -0.53139
C          4.18417        3.56999        1.87005
H          3.78685       -3.02886       -0.07205
H          2.72576       -3.03333       -1.48385
H          4.27999       -3.83680       -1.55817
H          4.61748       -2.39152       -3.69214
H          3.14517       -1.46752       -3.39037
H          4.68462       -0.63626       -3.55724
H          6.10324       -1.83271       -0.26427
H          6.35474       -2.68233       -1.79040
H          6.49193       -0.93251       -1.72456
H          6.71665        2.37491       -0.14121
H          6.76862        3.55236        1.16094
H          6.32112        1.87935        1.49980
H          3.57581        4.39299       -0.69158
H          5.15530        5.02738       -0.22861
H          5.02791        3.79946       -1.48464
H          4.13982        2.78066        2.62007
H          3.18489        3.98565        1.75003
H          4.81686        4.36699        2.26009
H          6.29345        0.84513       -3.25853
H          4.81610        1.75133       -2.85085
H          6.42325        2.44323       -2.51890
