111
-148.54895500
P         -1.98606        2.58819        0.86280
P         -0.25747       -0.06569        0.49476
C         -1.26954        1.76550        2.30716
C         -0.51207        0.62674        2.14388
C         -1.51377        4.37897        0.91691
C         -0.85133        4.81978       -0.36957
C         -1.40942        2.32712        3.56036
H         -1.97828        3.23518        3.67635
C         -0.79548        1.73972        4.65292
H         -0.90718        2.17646        5.63190
C         -0.02339        0.60685        4.48535
H          0.46983        0.15821        5.33192
C          0.12851        0.05697        3.22525
H          0.76406       -0.80162        3.07355
Pd        -1.45849        1.29333       -0.97526
Cl        -2.38730        2.85913       -2.28121
Cl        -0.63685        0.00790       -2.62525
C         -2.85305        5.08747        1.20554
C         -3.83201        2.73779        0.88980
H         -1.55335        4.76076       -1.20225
H         -0.50008        5.85259       -0.30917
H          0.00092        4.18337       -0.61527
H         -2.84993        6.08225        0.73657
H         -2.95611        5.27042        2.28514
H         -4.19615        2.17714        0.01764
C         -4.06492        4.25170        0.70731
C         -4.42436        2.16942        2.16139
H         -0.81745        4.48799        1.75975
H         -4.98390        4.54860        1.23333
H         -4.24598        4.47470       -0.35451
H         -4.08760        2.73386        3.03192
H         -5.51605        2.21134        2.14775
H         -4.12741        1.12806        2.30679
C         -0.92665       -4.58736        0.33452
C         -1.15467       -3.89147        1.55094
C         -0.94853       -2.52207        1.57164
C         -0.60586       -1.83238        0.43583
C         -0.53444       -2.48755       -0.76639
C         -0.72376       -3.85440       -0.86364
O         -0.82196       -6.00210        0.32979
C         -1.61718       -4.57186        2.85060
H         -1.05430       -1.97880        2.49303
H         -0.33556       -1.90829       -1.64964
C         -0.72086       -4.48202       -2.26806
C          3.93967        1.07662       -0.84430
C          3.51599       -0.26985       -0.98599
C          2.23335       -0.59883       -0.58333
C          1.41365        0.33279       -0.00430
C          1.85068        1.61178        0.22470
C          3.12588        2.00590       -0.14608
O          5.16236        1.50679       -1.42531
C          4.40183       -1.36464       -1.60138
H          1.85276       -1.59356       -0.72724
H          1.17249        2.30058        0.69892
C          3.60597        3.42444        0.19909
C         -2.15946       -5.99085        2.60574
C         -0.44232       -4.63477        3.84050
C         -2.76540       -3.75280        3.48097
C         -1.62892       -3.65100       -3.20169
C          0.71177       -4.47864       -2.82676
C         -1.26934       -5.91936       -2.26940
C          0.50595       -6.45337        0.53829
H         -2.56897       -6.41855        3.52058
H         -2.94778       -5.97656        1.85394
H         -1.37516       -6.65694        2.25381
H         -0.06578       -3.63660        4.06215
H         -0.74891       -5.09397        4.77996
H          0.38226       -5.21829        3.43556
H         -2.43314       -2.76593        3.79875
H         -3.57987       -3.62196        2.76907
H         -3.16530       -4.25788        4.35989
H         -2.63379       -3.57053       -2.78837
H         -1.24482       -2.64327       -3.34979
H         -1.70543       -4.11598       -4.18414
H          0.74065       -4.91000       -3.82696
H          1.10210       -3.46351       -2.88952
H          1.38249       -5.05570       -2.19274
H         -0.61946       -6.58974       -1.71202
H         -2.25700       -5.95407       -1.81095
H         -1.35106       -6.30803       -3.28419
H          0.52669       -7.54249        0.49463
H          1.16344       -6.04891       -0.22988
H          0.86290       -6.12584        1.51334
C          5.03758        1.96544       -2.76557
C          4.07113       -2.74405       -0.98582
C          4.14393       -1.42879       -3.11466
C          5.89278       -1.10013       -1.32445
C          3.31487        4.36846       -0.97708
C          2.87498        3.96024        1.45151
C          5.11177        3.42797        0.51944
H          4.77771       -3.49977       -1.32824
H          4.12314       -2.70540        0.10190
H          3.07729       -3.08642       -1.26877
H          4.37762       -0.48167       -3.59501
H          4.75044       -2.20376       -3.58256
H          3.09644       -1.65071       -3.31729
H          6.07389       -1.01164       -0.25379
H          6.51220       -1.91072       -1.70757
H          6.22843       -0.18004       -1.79552
H          3.60997        5.39017       -0.73936
H          3.85431        4.06447       -1.87018
H          2.25274        4.37098       -1.21760
H          1.81912        4.13976        1.25564
H          2.95580        3.25614        2.27931
H          3.30529        4.90769        1.77510
H          5.44589        4.42005        0.82204
H          5.70081        3.13132       -0.34519
H          5.33345        2.73345        1.32908
H          5.59675        1.31049       -3.43316
H          3.98906        1.98065       -3.06595
H          5.45602        2.96863       -2.84643
