111
-148.55106126
P         -2.61806        2.00012        0.27009
P          0.14147        0.45510        0.50697
C         -1.78172        1.87266        1.87842
C         -0.56098        1.23933        1.96718
C         -3.61894        3.55719        0.17992
C         -3.27156        4.37749       -1.04234
C         -2.36522        2.39545        3.01536
H         -3.32918        2.87237        2.94940
C         -1.71796        2.29028        4.23453
H         -2.17370        2.69934        5.12145
C         -0.49158        1.65938        4.31728
H          0.01074        1.57496        5.26688
C          0.08671        1.12669        3.17931
H          1.03511        0.61453        3.22740
Pd        -1.00804        1.38401       -1.27617
Cl        -2.36533        2.05809       -2.92213
Cl         0.69102        0.69303       -2.57996
C         -5.07112        3.03482        0.18987
C         -3.94805        0.73407        0.03971
H         -3.51302        3.82884       -1.95348
H         -3.82993        5.31625       -1.06828
H         -2.20575        4.61528       -1.07250
H         -5.70966        3.71553       -0.39191
H         -5.47087        3.05837        1.21433
H         -3.62798        0.08117       -0.78419
C         -5.16822        1.58581       -0.36582
C         -4.15092       -0.07115        1.30450
H         -3.39644        4.12936        1.09042
H         -6.08996        1.09733       -0.01737
H         -5.24785        1.62294       -1.46235
H         -4.44772        0.57770        2.13067
H         -4.92947       -0.82751        1.17918
H         -3.23078       -0.57903        1.60045
C         -1.43978       -3.80379        0.16767
C         -0.86208       -3.16602       -0.95941
C         -0.40673       -1.86873       -0.81128
C         -0.43440       -1.23921        0.40434
C         -0.88532       -1.89176        1.52136
C         -1.36344       -3.18940        1.44432
O         -2.12968       -5.03546        0.01269
C         -0.75519       -3.83468       -2.33814
H         -0.03247       -1.31579       -1.65493
H         -0.87204       -1.36429        2.45873
C         -1.81827       -3.90033        2.72870
C          4.66765        0.74133        0.11157
C          4.01808       -0.50604       -0.06979
C          2.64064       -0.55019        0.05896
C          1.92458        0.56093        0.41913
C          2.55670        1.74551        0.69189
C          3.93417        1.85817        0.58910
O          6.04097        0.88214       -0.22209
C          4.76958       -1.79188       -0.44784
H          2.10148       -1.45904       -0.14199
H          1.95255        2.58978        0.97664
C          4.60515        3.19021        0.95959
C         -0.60608       -5.36110       -2.20821
C         -2.00345       -3.48964       -3.16448
C          0.49431       -3.32420       -3.09282
C         -1.55903       -5.41542        2.64118
C         -1.03003       -3.37743        3.95095
C         -3.31310       -3.63300        2.96123
C         -3.51029       -4.88806       -0.29510
H         -0.46707       -5.82571       -3.18407
H          0.25415       -5.61070       -1.58792
H         -1.48573       -5.80913       -1.75325
H         -2.90901       -3.84309       -2.67688
H         -2.09508       -2.41099       -3.29077
H         -1.95424       -3.94243       -4.15435
H          0.40033       -2.27515       -3.36898
H          1.38928       -3.43862       -2.48203
H          0.64491       -3.88452       -4.01519
H         -0.50829       -5.61352        2.43216
H         -1.81881       -5.91230        3.57558
H         -2.14860       -5.87323        1.85063
H         -1.25790       -3.96665        4.83893
H          0.04363       -3.43883        3.77499
H         -1.28216       -2.34316        4.18079
H         -3.50126       -2.56611        3.07634
H         -3.91208       -3.98721        2.12585
H         -3.66325       -4.13478        3.86293
H         -3.71943       -5.33306       -1.26765
H         -4.10790       -5.40859        0.45316
H         -3.78607       -3.83278       -0.31195
C          6.27073        1.26581       -1.57214
C          4.83282       -1.90829       -1.97847
C          6.18927       -1.80263        0.14698
C          4.03890       -3.03507        0.11046
C          3.80144        3.91710        2.06189
C          6.02247        2.96294        1.51632
C          4.66222        4.09301       -0.28201
H          5.34689       -2.82044       -2.28033
H          3.82994       -1.92831       -2.40449
H          5.35990       -1.06421       -2.41660
H          6.15273       -1.67815        1.22871
H          6.69782       -2.74177       -0.06957
H          6.79692       -0.99857       -0.26023
H          3.08155       -3.19754       -0.38234
H          4.63360       -3.93504       -0.04441
H          3.86066       -2.93182        1.18049
H          2.83493        4.26089        1.69666
H          3.63251        3.26061        2.91511
H          4.33941        4.79580        2.41703
H          6.67814        2.52623        0.76722
H          6.47168        3.90162        1.83970
H          5.99527        2.28765        2.37084
H          5.24044        3.63157       -1.07882
H          5.12046        5.05314       -0.04624
H          3.66047        4.28198       -0.66712
H          6.86515        0.50258       -2.07404
H          5.32313        1.39267       -2.09732
H          6.82861        2.20176       -1.59639
