59
-75.79856542
Cl         1.47792        0.11513        2.40796
P          1.47462       -0.22087       -0.78135
P         -1.69198        0.12545       -0.83603
C          0.55439       -0.60596       -2.33545
H          1.21083       -0.41306       -3.18867
H          0.36126       -1.68085       -2.32729
C         -0.73344        0.17169       -2.41949
H         -1.37667       -0.17744       -3.23243
H         -0.53425        1.22792       -2.61497
C          2.82623       -1.44960       -0.49191
H          3.02755       -1.92078       -1.46182
C          2.46138        1.34973       -0.76963
H          2.19287        1.86611        0.16028
C         -2.91322       -1.25946       -0.66316
H         -2.92268       -1.51760        0.40331
C         -2.86169        1.56434       -0.84020
H         -2.79986        2.00076       -1.84462
C          4.01169       -0.56574       -0.06895
H          4.01370       -0.47903        1.02647
H          4.96541       -1.04912       -0.33055
C          3.91675        0.85114       -0.69837
H          4.33213        0.82589       -1.71515
H          4.54051        1.56763       -0.14259
C         -4.24044       -0.58186       -1.04228
H         -4.38176       -0.66178       -2.12917
H         -5.08892       -1.11920       -0.59129
C         -4.24014        0.91353       -0.62236
H         -4.50264        0.99164        0.44156
H         -5.01988        1.47365       -1.16022
C          2.42578       -2.50438        0.53225
H          1.48426       -2.97403        0.21840
H          2.19502       -2.00666        1.48264
C          2.16843        2.24504       -1.96733
H          2.40439        1.69546       -2.88775
H          1.09090        2.44417       -2.01620
C         -2.56366       -2.49590       -1.48492
H         -3.45966       -3.12281       -1.59329
H         -2.30427       -2.18620       -2.50498
C         -2.49005        2.60800        0.20629
H         -3.29636        3.35168        0.27381
H         -2.46010        2.12470        1.19126
C          3.49413       -3.56684        0.74240
H          4.42541       -3.12697        1.10361
H          3.72335       -4.08496       -0.19072
H          3.18466       -4.32052        1.47008
C          2.93169        3.56053       -1.92601
H          4.01045        3.39481       -1.92521
H          2.69265        4.12546       -1.02292
H          2.69893        4.19674       -2.78303
C         -1.43839       -3.30840       -0.86291
H         -1.73480       -3.71571        0.10575
H         -0.55899       -2.69011       -0.68538
H         -1.13543       -4.14677       -1.49419
C         -1.16613        3.29948       -0.08124
H         -0.34398        2.58388       -0.11146
H         -1.18632        3.80640       -1.04780
H         -0.91977        4.04569        0.67745
Cl        -1.85302        0.01305        2.30169
Pd        -0.13447       -0.04348        0.85992
