58
-89.86552911
P          1.72458        0.37158        0.75617
C          2.99759        1.59112        0.38773
C          4.20336        1.51241        1.04903
C          5.18931        2.45115        0.80201
C          4.95857        3.47009       -0.10046
C          3.74438        3.55431       -0.75200
C          2.76156        2.61384       -0.50290
H          1.81188        2.67023       -1.00912
H          4.36803        0.72039        1.76261
C          2.26525       -1.30351        0.38151
C          3.56042       -1.57441        0.00309
C          3.93558       -2.87321       -0.28910
C          3.00884       -3.89391       -0.20628
C          1.70746       -3.61745        0.16170
C          1.33870       -2.31777        0.45421
H          0.31761       -2.08440        0.70022
H          4.27079       -0.76922       -0.07878
C          1.36900        0.53131        2.55256
C          0.16212       -0.24337        3.05244
C         -1.16867        0.35146        2.61793
P         -1.65854       -0.01909        0.88416
C         -1.98921       -1.77140        0.64338
C         -2.14630       -2.22792       -0.64539
C         -2.36319       -3.57187       -0.88388
C         -2.42408       -4.45377        0.17637
C         -2.27533       -3.99291        1.46962
C         -2.05930       -2.64694        1.70378
H         -1.94635       -2.28090        2.71082
H         -2.09395       -1.52277       -1.45920
C         -3.13119        0.95346        0.55973
C         -4.34749        0.33228        0.39234
C         -5.47534        1.08925        0.13137
C         -5.37461        2.46353        0.03892
C         -4.15102        3.08189        0.20591
C         -3.02451        2.32212        0.46716
H         -2.06007        2.78941        0.59131
H         -4.40830       -0.74188        0.46028
Pd        -0.05829        0.46253       -0.72859
Cl         1.43359        0.61752       -2.40071
Cl        -1.79183        0.66237       -2.15493
H         -1.99159       -0.01104        3.23888
H         -1.15571        1.43757        2.72646
H          0.23037       -1.28915        2.72947
H          0.19518       -0.28323        4.15248
H          2.28084        0.21008        3.06192
H          1.25284        1.59689        2.75983
H          6.13472        2.38753        1.31532
H          3.56241        4.34949       -1.45619
H          4.94914       -3.08683       -0.58639
H          0.97641       -4.40755        0.21161
H         -2.48120       -3.92834       -1.89390
H         -2.32652       -4.68153        2.29699
H         -6.42926        0.60637       -0.00326
H         -4.07172        4.15382        0.12898
H          5.72600        4.20147       -0.29507
H          3.29961       -4.90572       -0.43731
H         -2.59086       -5.50299       -0.00541
H         -6.25212        3.05447       -0.16717
