111
-148.55483325
P         -1.44281        2.62133        1.25210
P         -0.31827       -0.25489        0.58891
C         -0.91041        1.52630        2.59989
C         -0.48875        0.24521        2.31203
C         -0.32975        4.09135        1.11664
C          0.47186        4.04286       -0.16698
C         -0.90114        1.97492        3.90513
H         -1.19441        2.98932        4.12073
C         -0.49403        1.12817        4.92173
H         -0.49063        1.47673        5.94159
C         -0.08674       -0.15999        4.63105
H          0.23479       -0.81692        5.42239
C         -0.07408       -0.60002        3.31950
H          0.27272       -1.59058        3.06996
Pd        -1.64410        1.22618       -0.58030
Cl        -2.72194        2.92948       -1.56833
Cl        -1.75500       -0.20936       -2.30126
C         -1.30329        5.28289        1.21194
C         -3.06073        3.46330        1.57655
H          1.10677        3.15558       -0.20840
H         -0.19089        4.00977       -1.03402
H          1.11330        4.92100       -0.27149
H         -1.53196        5.63113        0.19533
H         -0.81845        6.13479        1.71223
H         -3.59332        3.46180        0.61642
C         -2.62745        4.89698        1.93174
C         -3.88720        2.76079        2.63289
H          0.32809        4.05760        1.99491
H         -2.49074        4.96813        3.01952
H         -3.42971        5.61025        1.68815
H         -4.07988        1.72140        2.35737
H         -3.37448        2.75422        3.59499
H         -4.84955        3.25636        2.77964
C         -0.84777       -4.71645       -0.15188
C         -1.94701       -3.94067        0.30387
C         -1.74060       -2.59337        0.55510
C         -0.53044       -2.00489        0.29680
C          0.49521       -2.72292       -0.26096
C          0.35693       -4.07227       -0.53968
O         -0.92639       -6.13294       -0.15167
C         -3.36445       -4.50315        0.50523
H         -2.53191       -1.98274        0.95688
H          1.41639       -2.21242       -0.48422
C          1.50574       -4.77724       -1.28100
C          3.60441        1.39275       -1.03893
C          3.33890        1.45220        0.35329
C          2.15956        0.89824        0.82124
C          1.24064        0.36399       -0.04314
C          1.44244        0.40562       -1.39751
C          2.59655        0.94914       -1.93279
O          4.88698        1.75301       -1.53118
C          4.31186        2.10091        1.34976
H          1.93721        0.88468        1.87355
H          0.65745        0.03559       -2.03385
C          2.72831        1.06205       -3.45961
C         -4.39155       -3.54618       -0.14004
C         -3.54986       -5.87627       -0.16396
C         -3.65942       -4.62093        2.00942
C          1.98716       -3.88640       -2.44855
C          2.67677       -5.00899       -0.31249
C          1.06639       -6.11982       -1.89051
C         -0.51017       -6.70736        1.07574
H         -4.41434       -2.57912        0.35923
H         -4.15223       -3.37742       -1.18960
H         -5.39735       -3.96204       -0.08672
H         -4.58484       -6.21047       -0.09571
H         -3.27554       -5.83016       -1.21729
H         -2.92840       -6.63266        0.30952
H         -4.66870       -4.99456        2.18024
H         -2.96307       -5.30251        2.49431
H         -3.57240       -3.65213        2.50037
H          2.73427       -4.40348       -3.05013
H          1.15436       -3.62246       -3.09983
H          2.44233       -2.96413       -2.09166
H          3.02702       -4.06615        0.10667
H          2.38264       -5.65174        0.51487
H          3.51564       -5.48190       -0.82254
H          0.19355       -5.98450       -2.52828
H          1.86273       -6.55839       -2.49137
H          0.80538       -6.83718       -1.11590
H         -0.58947       -7.79266        1.00974
H          0.52261       -6.43412        1.28512
H         -1.13975       -6.34909        1.88862
C          5.79476        0.66328       -1.63054
C          5.32647        1.05146        1.82710
C          5.04362        3.29270        0.70621
C          3.55268        2.64887        2.57986
C          3.58904        2.27597       -3.85381
C          3.34612       -0.22981       -4.01491
C          1.34025        1.26629       -4.11002
H          5.90517        0.65696        0.99540
H          6.02237        1.48046        2.54762
H          4.81844        0.21409        2.30494
H          5.66852        2.97203       -0.12388
H          4.32873        4.02126        0.32503
H          5.68697        3.79424        1.42871
H          3.13015        1.84722        3.18387
H          4.22191        3.21671        3.22579
H          2.74389        3.31112        2.27284
H          3.62643        2.39523       -4.93630
H          3.18034        3.19067       -3.42554
H          4.61120        2.16987       -3.49935
H          2.71501       -1.08755       -3.78475
H          3.45799       -0.17520       -5.09745
H          4.32709       -0.41523       -3.58361
H          0.71653        0.37837       -4.01947
H          1.43876        1.47977       -5.17398
H          0.81456        2.10174       -3.64825
H          6.08952        0.52476       -2.67052
H          6.69021        0.88170       -1.04881
H          5.33298       -0.25216       -1.25831
