75
-122.80623961
P          1.91256       -0.41043       -0.12797
C          3.34894       -0.99743       -1.05585
C          3.88269       -2.23494       -0.77266
C          4.99483       -2.68478       -1.46008
C          5.57145       -1.89013       -2.43018
C          5.03759       -0.64908       -2.71239
C          3.92554       -0.20414       -2.02135
H          3.48875        0.75618       -2.24621
H          5.48220       -0.02902       -3.47337
H          6.43735       -2.23944       -2.96859
H          5.41036       -3.65390       -1.23765
H          3.43186       -2.84598       -0.00880
C          1.61726       -1.56905        1.20746
C          2.03689       -1.26933        2.48278
C          1.89662       -2.20814        3.48862
C          1.34481       -3.44205        3.20540
C          0.92826       -3.73833        1.92257
C          1.06579       -2.79654        0.91892
H          0.75571       -3.01544       -0.09101
H          0.49350       -4.69956        1.70322
H          1.23257       -4.17334        3.98909
H          2.21819       -1.97632        4.49058
H          2.47607       -0.30525        2.68317
C          2.28570        1.24130        0.49974
C          3.50394        1.86311        0.34356
C          3.68216        3.18221        0.73662
C          2.59199        3.87834        1.25632
C          1.36941        3.26776        1.42720
C          1.22372        1.91411        1.08377
O          0.02740        1.22162        1.30322
C         -1.16359        1.89938        1.01027
C         -1.32675        3.27053        1.26049
C         -2.50466        3.88281        0.89288
C         -3.53138        3.16860        0.27509
C         -3.36350        1.80800        0.05782
C         -2.19771        1.18149        0.43128
P         -1.78411       -0.55308        0.17000
C         -1.74008       -1.39342        1.76911
C         -1.27318       -0.75457        2.89488
C         -1.30854       -1.39122        4.12081
C         -1.81019       -2.67367        4.21402
C         -2.27285       -3.31788        3.08413
C         -2.23846       -2.67385        1.86050
H         -2.60551       -3.16469        0.97365
H         -2.66180       -4.32036        3.15442
H         -1.83499       -3.17435        5.16811
H         -0.93764       -0.88944        4.99936
H         -0.86491        0.23677        2.80732
C         -3.06212       -1.38686       -0.79166
C         -4.36655       -1.31704       -0.35761
C         -5.36230       -1.97396       -1.05754
C         -5.04252       -2.70649       -2.18306
C         -3.73051       -2.78979       -2.60432
C         -2.73746       -2.13269       -1.90178
H         -1.70984       -2.19766       -2.22021
H         -3.47935       -3.36494       -3.48034
H         -5.81732       -3.21754       -2.73097
H         -6.38467       -1.91663       -0.72175
H         -4.59848       -0.76581        0.54014
Pd        -0.07228       -0.11687       -1.44227
Cl        -1.75997        0.71807       -2.67616
Cl         1.33424       -0.24334       -3.18003
H         -4.13910        1.24634       -0.43048
C         -4.79810        3.84460       -0.11260
H         -5.24154        3.37285       -0.99047
H         -4.62605        4.89448       -0.35310
H         -5.52565        3.79896        0.69870
H         -2.62913        4.93377        1.08554
S         -0.02128        4.16815        2.06063
H          2.70168        4.91366        1.52733
C          4.99108        3.86009        0.53977
H          4.32582        1.32509       -0.09403
H          5.81696        3.15301        0.62819
H          5.04434        4.31836       -0.44856
H          5.14439        4.64322        1.28337
