171
-217.83541461
P         -1.53442        0.06385       -0.11496
P          1.80513       -0.48897       -0.07150
C         -0.87845        1.22933       -1.32105
C          1.06422       -1.32920       -1.48709
C         -0.05430        0.74313       -2.32884
C          0.48330        1.64505       -3.26739
C          0.12909        2.98224       -3.19387
C         -0.70726        3.44299       -2.19873
C         -1.20305        2.56247       -1.25749
C          1.30413       -2.68251       -1.53885
C          0.73316       -3.45458       -2.53152
C         -0.09925       -2.86251       -3.45631
C         -0.36963       -1.50523       -3.40983
C          0.23251       -0.71283       -2.41459
Cl         1.33804       -1.48575        3.06246
Cl        -1.59788       -2.35733        2.24872
C         -1.30097       -0.92399       -4.41366
C          1.40593        1.17854       -4.33874
H         -0.96968        4.48731       -2.15459
H         -1.84002        2.91985       -0.46703
H          1.93556       -3.13608       -0.78896
H          0.92954       -4.51342       -2.57461
H          0.51308        3.66614       -3.93144
H         -0.55929       -3.45926       -4.22596
C         -4.41819       -2.64727       -2.32489
C         -3.54114       -3.21526       -1.40767
C         -2.67706       -2.37081       -0.72569
C         -2.67749       -1.02182       -0.96954
C         -3.54220       -0.47778       -1.88815
C         -4.44531       -1.27965       -2.57539
H         -5.10276       -3.28475       -2.85012
H         -2.01210       -2.76641        0.02083
H         -3.50643        0.58132       -2.07964
C         -3.97909        2.29178        3.03186
C         -2.94219        1.47785        3.46579
C         -2.19459        0.81199        2.50497
C         -2.47927        0.93809        1.16471
C         -3.53149        1.72549        0.76365
C         -4.28552        2.44085        1.68534
H         -4.56918        2.80503        3.76741
H         -1.39303        0.17202        2.81806
H         -3.77594        1.77939       -0.28271
C          2.29565        4.01384       -0.09304
C          3.05909        3.23910       -0.95557
C          2.85766        1.86477       -0.93879
C          1.94124        1.30314       -0.08405
C          1.20921        2.08414        0.78050
C          1.36538        3.46549        0.78077
H          2.44298        5.07807       -0.09019
H          3.42528        1.21731       -1.58406
H          0.51083        1.61190        1.44760
C          6.01817       -2.11430        0.32627
C          5.26144       -1.96137        1.48173
C          3.96801       -1.47441        1.35079
C          3.46359       -1.15288        0.11705
C          4.22540       -1.30947       -1.01487
C          5.52221       -1.79964       -0.93361
H          7.01806       -2.49474        0.41796
H          3.32912       -1.36411        2.20714
H          3.79824       -1.05976       -1.97223
Pd        -0.00027       -1.07943        1.29520
C         -4.51762       -5.49976       -1.96685
C         -3.50980       -4.71921       -1.10192
C         -3.86067       -4.93955        0.38145
C         -2.09808       -5.26503       -1.38544
H         -5.53792       -5.16633       -1.77837
H         -4.30229       -5.37506       -3.02796
H         -4.47358       -6.56582       -1.74422
H         -3.86295       -6.00083        0.62887
H         -3.14243       -4.44653        1.03550
H         -4.84788       -4.53713        0.60717
H         -2.04554       -6.33513       -1.18620
H         -1.82601       -5.10196       -2.42784
H         -1.35092       -4.77361       -0.76334
C         -4.70839        0.08942       -4.67390
C         -5.45473       -0.63053       -3.53618
C         -6.30196        0.39247       -2.75670
C         -6.40194       -1.67411       -4.15884
H         -5.40969        0.58449       -5.34544
H         -4.02963        0.84778       -4.28545
H         -4.12671       -0.61743       -5.26400
H         -7.06117        0.84085       -3.39729
H         -6.80685       -0.08531       -1.91734
H         -5.68205        1.19752       -2.36432
H         -5.84704       -2.41085       -4.73946
H         -6.97121       -2.19554       -3.38953
H         -7.11571       -1.19635       -4.82989
C         -1.44486        0.40884        5.22880
C         -2.68602        1.28718        4.96870
C         -3.91060        0.59864        5.59768
C         -2.45962        2.65466        5.63953
H         -1.26492        0.30059        6.29811
H         -1.57606       -0.59145        4.81661
H         -0.55125        0.84905        4.78703
H         -4.09273       -0.36634        5.12496
H         -3.75970        0.42989        6.66374
H         -4.80815        1.20447        5.47797
H         -3.32214        3.30805        5.51555
H         -2.28338        2.53788        6.70871
H         -1.59297        3.15680        5.21190
C         -4.94728        4.23649        0.05427
C         -5.44113        3.32424        1.19517
C         -5.98916        4.22090        2.32248
C         -6.57562        2.42022        0.68384
H         -4.63191        3.65898       -0.81364
H         -5.73661        4.91349       -0.27191
H         -4.10044        4.83904        0.38268
H         -6.76836        4.88317        1.94528
H         -6.42735        3.62593        3.12334
H         -5.19977        4.84260        2.74483
H         -6.22744        1.77694       -0.12263
H         -6.94707        1.77878        1.48280
H         -7.41000        3.01205        0.30795
C          4.89347        2.86088       -2.67721
C          4.10590        3.90389       -1.86079
C          5.10512        4.68931       -0.99049
C          3.40299        4.86336       -2.83676
H          5.41690        2.16740       -2.01953
H          4.23283        2.28903       -3.32788
H          5.63892        3.34465       -3.30819
H          5.58919        4.02935       -0.27078
H          5.88114        5.14660       -1.60411
H          4.60947        5.48454       -0.43514
H          2.84341        5.63094       -2.30335
H          4.12593        5.36269       -3.48161
H          2.70514        4.32075       -3.47251
C         -0.10602        5.50405        0.94374
C          0.59610        4.38682        1.73926
C          1.58816        5.00735        2.73889
C         -0.47822        3.61879        2.52710
H         -0.66806        6.15957        1.60879
H          0.60882        6.11946        0.39953
H         -0.80479        5.08273        0.22259
H          2.09864        4.22950        3.30654
H          2.34580        5.59877        2.22579
H          1.07471        5.65949        3.44522
H         -1.19366        3.15358        1.85149
H         -0.03284        2.84367        3.14980
H         -1.03328        4.29183        3.18002
C          4.85741       -2.09130        3.99170
C          5.85851       -2.33778        2.84545
C          7.11409       -1.48486        3.10391
C          6.23490       -3.83070        2.84096
H          3.95656       -2.69071        3.86225
H          5.29568       -2.35893        4.95296
H          4.56854       -1.04172        4.04158
H          7.54896       -1.71547        4.07629
H          7.87722       -1.66299        2.34722
H          6.86768       -0.42335        3.08731
H          6.98253       -4.04887        2.07930
H          6.64331       -4.13297        3.80513
H          5.35943       -4.44687        2.63688
C          6.47501       -0.63047       -2.93771
C          6.33607       -1.98673       -2.22179
C          5.60406       -2.98356       -3.13995
C          7.74709       -2.53302       -1.93163
H          7.06679       -0.72819       -3.84767
H          5.50156       -0.22869       -3.21636
H          6.96678        0.09656       -2.29177
H          6.16518       -3.15266       -4.05880
H          5.47563       -3.94367       -2.64053
H          4.61608       -2.61621       -3.41559
H          7.69840       -3.50562       -1.44229
H          8.31099       -2.65749       -2.85605
H          8.30788       -1.85105       -1.29269
H         -1.61745        0.08086       -4.13218
H          2.12893        1.95273       -4.59949
H         -2.19568       -1.54135       -4.50357
H         -0.83145       -0.86871       -5.39682
H          0.85424        0.91943       -5.24319
H          1.96670        0.29838       -4.02002
