111
-148.55706331
P         -2.59474        1.99467        0.97984
P          0.14724        0.48280        0.46370
C         -1.47837        1.65184        2.36706
C         -0.26777        1.03715        2.12920
C         -3.46536        3.61648        1.16896
C         -2.89628        4.65882        0.23125
C         -1.83672        1.98945        3.65644
H         -2.79264        2.45181        3.84027
C         -0.97432        1.71712        4.70458
H         -1.25331        1.98042        5.71179
C          0.24108        1.10596        4.46241
H          0.91078        0.89125        5.27885
C          0.59359        0.76054        3.17015
H          1.53065        0.26700        2.96468
Pd        -1.33289        1.62124       -0.91207
Cl        -3.08820        2.31477       -2.12157
Cl         0.07852        1.19011       -2.60512
C         -4.93691        3.24738        0.90288
C         -4.04400        0.84745        0.89285
H         -2.99924        4.34268       -0.80787
H         -3.41268        5.61576        0.33708
H         -1.83266        4.82377        0.41945
H         -5.15516        3.41652       -0.16063
H         -5.60834        3.92363        1.45363
H         -4.11694        0.53009       -0.15611
C         -5.22849        1.76130        1.25876
C         -3.86286       -0.34727        1.80391
H         -3.33146        3.92365        2.21390
H         -5.42233        1.67414        2.33674
H         -6.14793        1.41219        0.76459
H         -2.98710       -0.93276        1.51737
H         -3.71996       -0.02815        2.83793
H         -4.73319       -1.00695        1.77619
C         -1.23486       -3.81727       -0.12181
C         -1.03438       -3.31843        1.19095
C         -0.60118       -2.01162        1.33773
C         -0.43148       -1.19840        0.24872
C         -0.71163       -1.64748       -1.01366
C         -1.16242       -2.93703       -1.23167
O         -1.46894       -5.20312       -0.32603
C         -1.24448       -4.18229        2.44398
H         -0.38042       -1.61068        2.31112
H         -0.55900       -0.96796       -1.83391
C         -1.54434       -3.35690       -2.65922
C          4.58968        0.62033       -0.51150
C          4.00061       -0.57915       -0.03644
C          2.64371       -0.57635        0.23821
C          1.89984        0.56905        0.12514
C          2.48434        1.75590       -0.22899
C          3.83730        1.82339       -0.52068
O          5.91879        0.60809       -1.01217
C          4.79275       -1.88340        0.14520
H          2.14034       -1.48187        0.53036
H          1.86004        2.63035       -0.29385
C          4.45533        3.18234       -0.88499
C         -1.63900       -3.30650        3.65532
C         -2.38487       -5.19437        2.23220
C          0.06270       -4.91730        2.77731
C         -2.64706       -4.43084       -2.64715
C         -2.10276       -2.14859       -3.44688
C         -0.29692       -3.88313       -3.38480
C         -0.28672       -5.96251       -0.54576
H         -2.49866       -2.68039        3.41871
H         -1.90427       -3.92748        4.51065
H         -0.82050       -2.66147        3.97142
H         -2.57652       -5.76471        3.14074
H         -3.30498       -4.68227        1.95245
H         -2.14457       -5.90322        1.44363
H          0.36748       -5.56874        1.96189
H          0.87010       -4.20669        2.95327
H         -0.05030       -5.52882        3.67215
H         -2.96169       -4.68101       -3.66000
H         -2.30422       -5.34722       -2.17358
H         -3.51954       -4.07797       -2.09824
H         -2.49789       -2.46458       -4.41193
H         -2.91001       -1.66633       -2.89619
H         -1.33335       -1.40423       -3.64568
H          0.12215       -4.74646       -2.87330
H         -0.53500       -4.17900       -4.40614
H          0.47593       -3.11592       -3.42683
H         -0.21724       -6.75295        0.20143
H         -0.32695       -6.42787       -1.53038
H          0.59445       -5.32271       -0.48174
C          6.01060        0.32547       -2.40299
C          6.25207       -1.59598        0.54172
C          4.17918       -2.74134        1.27608
C          4.74553       -2.69186       -1.16038
C          4.33953        3.40015       -2.40137
C          3.71282        4.33074       -0.16464
C          5.92926        3.25931       -0.44703
H          6.77874       -1.05955       -0.24349
H          6.29135       -0.98830        1.44513
H          6.79631       -2.52091        0.73094
H          4.81197       -3.60089        1.49602
H          4.07538       -2.15939        2.19152
H          3.19886       -3.12931        1.00281
H          5.18509       -2.13599       -1.98496
H          5.29009       -3.63024       -1.05862
H          3.71608       -2.92630       -1.43085
H          4.75559        4.36480       -2.69070
H          4.86897        2.62679       -2.95245
H          3.29620        3.37373       -2.71507
H          3.66320        4.14727        0.90836
H          4.22627        5.27961       -0.31846
H          2.69795        4.45298       -0.53998
H          6.02305        3.06183        0.62029
H          6.34667        4.24574       -0.64761
H          6.53945        2.53121       -0.97539
H          5.01693        0.17220       -2.82600
H          6.49918        1.15519       -2.91353
H          6.61327       -0.56963       -2.55578
