64
-97.20702626
Cl        -1.52622       -1.42351       -2.62068
Cl         1.52243       -2.34520       -2.52012
P          1.96331       -0.60029        0.19406
C          2.39164       -2.22047        0.97151
C          3.63253       -0.10801       -0.44015
P         -1.23806       -0.10031        0.39009
C          1.31883        0.60828        1.40141
C         -0.11034        0.81802        1.50736
C         -0.33507        1.87219        2.48641
C          0.96032        2.31030        2.97858
C          1.98512        1.52807        2.30842
H         -1.30351        2.27746        2.78369
H          1.13312        3.08608        3.72779
Pd         0.18742       -1.10752       -1.20758
H          3.06411        1.60761        2.45517
C         -4.67886        2.62721       -0.81399
C         -3.94425        1.98586       -1.79131
C         -2.91694        1.13430       -1.43124
C         -2.61889        0.93849       -0.10208
C         -3.36304        1.55964        0.87538
C         -4.39528        2.40960        0.51984
H         -5.48159        3.29049       -1.09238
H         -4.17476        2.14209       -2.83241
H         -2.35840        0.60075       -2.18110
H         -3.13929        1.37056        1.91291
H         -4.97609        2.90054        1.28339
C         -2.86672       -3.84558        2.37970
C         -2.85096       -3.74926        1.00178
C         -2.35773       -2.60719        0.39930
C         -1.88352       -1.57524        1.17473
C         -1.90030       -1.66279        2.54754
C         -2.39310       -2.80424        3.15438
H         -3.25029       -4.73542        2.85172
H         -3.21994       -4.56123        0.39695
H         -2.32818       -2.51218       -0.67441
H         -1.52411       -0.84104        3.13593
H         -2.40641       -2.87995        4.22928
C          3.60575        0.13141       -1.93526
H          3.90360        0.80629        0.10324
C          4.54494       -1.27970       -0.02391
H          5.53906       -0.90741        0.26533
C          3.92056       -2.13159        1.11460
H          4.71699       -1.91957       -0.90001
C          1.65074       -2.41819        2.27584
H          2.12042       -2.99684        0.24368
H          4.15864       -1.67852        2.08701
H          4.36204       -3.13960        1.14149
H          0.57091       -2.44082        2.11774
H          1.94005       -3.35268        2.76188
H          1.86371       -1.60235        2.96923
H          2.87338        0.89133       -2.21173
H          4.58250        0.45027       -2.30610
H          3.33553       -0.78258       -2.46598
Fe         0.82696        2.51483        0.93244
C          0.17197        4.31814        0.22105
C         -0.38697        3.22483       -0.55253
C          0.70784        2.46146       -1.12037
C          1.94899        3.08426       -0.69543
C          1.61892        4.22930        0.13502
H         -0.39580        5.08138        0.75839
H         -1.44981        3.03498       -0.70616
H          0.60788        1.60637       -1.79151
H          2.95829        2.78443       -0.98354
H          2.33293        4.91778        0.59296
