64
-97.20962608
Cl        -1.65354       -1.24753       -2.49472
Cl         1.58301       -1.28656       -2.90608
P          1.97026       -0.66147        0.22926
C          2.16214       -2.33816        0.99040
C          3.75639       -0.25370       -0.07176
P         -1.31498       -0.14667        0.43912
C          1.27648        0.55702        1.40513
C         -0.15097        0.79396        1.49742
C         -0.34341        1.92668        2.38968
C          0.95513        2.35205        2.88223
C          1.96133        1.50247        2.27166
H         -1.30688        2.33302        2.70377
H          1.14084        3.15993        3.59380
Pd         0.16141       -0.91234       -1.22019
H          3.04075        1.56569        2.42287
C         -5.04630        2.15178       -0.83696
C         -4.92680        0.80162       -1.09830
C         -3.78812        0.12187       -0.70428
C         -2.77384        0.78926       -0.05590
C         -2.89708        2.13430        0.21096
C         -4.03162        2.81977       -0.18144
H         -5.93144        2.68422       -1.14489
H         -5.71653        0.27748       -1.61108
H         -3.68176       -0.93144       -0.90812
H         -2.10204        2.65001        0.71932
H         -4.12231        3.87390        0.02376
C         -2.64203       -3.96789        2.50309
C         -2.41014       -2.82815        3.24881
C         -2.01450       -1.66123        2.61941
C         -1.85261       -1.64700        1.25342
C         -2.08825       -2.77701        0.50554
C         -2.48367       -3.94459        1.13102
H         -2.94991       -4.87725        2.99301
H         -2.53540       -2.84705        4.31898
H         -1.82333       -0.76306        3.18517
H         -1.96997       -2.73270       -0.56525
H         -2.66886       -4.83213        0.54857
C          4.12877       -0.33984       -1.53578
H          3.92147        0.76304        0.30792
C          4.48973       -1.29701        0.79410
H          4.66051       -0.89339        1.80297
C          3.67551       -2.61439        0.89709
H          5.48889       -1.48918        0.37639
C          1.63477       -2.33393        2.40882
H          1.59051       -3.03977        0.36741
H          3.99702       -3.20203        1.76902
H          3.88876       -3.24400        0.02105
H          2.17842       -1.60890        3.01783
H          0.57870       -2.05964        2.43919
H          1.74240       -3.31336        2.88088
H          5.19175       -0.14232       -1.69061
H          3.91790       -1.33740       -1.92459
H          3.56576        0.37188       -2.14137
Fe         0.86699        2.49475        0.84109
C          2.26334        3.16815       -0.54348
C          1.46923        4.27302       -0.03534
C          0.07485        3.98759       -0.32767
C          0.01237        2.72057       -1.03426
C          1.36355        2.21630       -1.16464
H          3.35210        3.09159       -0.50640
H          1.85247        5.16291        0.46877
H         -0.77299        4.63789       -0.10031
H         -0.88360        2.24740       -1.44048
H          1.64625        1.30903       -1.70052
