64
-97.21599343
Cl        -1.64716       -1.23943       -2.53131
Cl         1.57326       -1.19158       -2.96324
P          1.92914       -0.67449        0.26330
C          2.09102       -2.35207        1.03112
C          3.72458       -0.30472       -0.04554
P         -1.27635       -0.13370        0.44499
C          1.27992        0.56632        1.43799
C         -0.14174        0.83482        1.50780
C         -0.34315        1.95767        2.41105
C          0.95983        2.39242        2.88165
C          1.96481        1.53288        2.28165
H         -1.30612        2.36987        2.71813
H          1.14925        3.20797        3.58310
Pd         0.16323       -0.91191       -1.25181
H          3.04418        1.59681        2.43315
C         -5.04195        2.10960       -0.83372
C         -4.90204        0.76166       -1.09625
C         -3.75366        0.09865       -0.70204
C         -2.74941        0.78047       -0.05303
C         -2.89359        2.12305        0.21589
C         -4.03799        2.79189       -0.17649
H         -5.93474        2.62904       -1.14176
H         -5.68352        0.22622       -1.60999
H         -3.63217       -0.95295       -0.90602
H         -2.10717        2.64985        0.72628
H         -4.14477        3.84421        0.03022
C         -2.58937       -3.95307        2.52235
C         -2.37310       -2.80662        3.26241
C         -1.98102       -1.64088        2.62864
C         -1.80613       -1.63469        1.26424
C         -2.02842       -2.77086        0.52152
C         -2.42003       -3.93734        1.15150
H         -2.89445       -4.86157        3.01562
H         -2.50797       -2.81931        4.33150
H         -1.80294       -0.73720        3.18988
H         -1.90617       -2.73194       -0.54909
H         -2.59442       -4.82985        0.57332
C          4.08914       -0.36446       -1.51269
H          3.91584        0.69910        0.35579
C          4.44227       -1.38260        0.79063
H          4.64534       -0.99971        1.80152
C          3.59069       -2.67599        0.89104
H          5.42669       -1.59877        0.35044
C          1.61529       -2.31966        2.46733
H          1.47638       -3.03997        0.43439
H          3.91650       -3.29051        1.74265
H          3.75943       -3.29410       -0.00273
H          1.70423       -3.29929        2.94283
H          2.20631       -1.61099        3.05094
H          0.57204       -2.00645        2.53351
H          5.15585       -0.18833       -1.66737
H          3.85378       -1.34727       -1.92417
H          3.54144        0.37487       -2.09869
Fe         0.86416        2.46397        0.82156
C          2.24840        3.15368       -0.49024
C          1.45739        4.26155        0.01922
C          0.06507        4.00015       -0.30370
C         -0.00061        2.73809       -1.01908
C          1.34704        2.21890       -1.13727
H          3.33621        3.06505       -0.43841
H          1.84303        5.14200        0.53818
H         -0.77858        4.65762       -0.08228
H         -0.89522        2.28279       -1.44879
H          1.62725        1.31774       -1.68585
