111
-148.55562510
P         -2.59946        2.00581        0.74403
P          0.14669        0.45879        0.46277
C         -1.52350        1.81719        2.19051
C         -0.30948        1.17931        2.05357
C         -3.47655        3.63532        0.73161
C         -2.87909        4.57352       -0.29428
C         -1.91624        2.29258        3.42524
H         -2.87538        2.77235        3.53128
C         -1.08404        2.13485        4.52014
H         -1.38954        2.50602        5.48479
C          0.13463        1.49907        4.37933
H          0.78080        1.37330        5.23247
C          0.52080        1.01461        3.14258
H          1.46056        0.49938        3.01914
Pd        -1.29405        1.44919       -1.07126
Cl        -3.01090        1.99137       -2.40361
Cl         0.18742        0.79980       -2.63350
C         -4.93879        3.23433        0.46044
C         -4.04520        0.85073        0.73770
H         -3.39970        5.53392       -0.30826
H         -1.82220        4.76257       -0.09151
H         -2.94865        4.14716       -1.29615
H         -5.12312        3.28725       -0.62147
H         -5.62758        3.96346        0.91363
H         -4.08513        0.42032       -0.27201
C         -5.24115        1.79419        0.96480
C         -3.89206       -0.23633        1.77914
H         -3.37591        4.05313        1.74129
H         -5.46978        1.82289        2.03909
H         -6.14400        1.39041        0.48184
H         -4.76060       -0.89871        1.79674
H         -3.00726       -0.84575        1.58549
H         -3.78182        0.19461        2.77596
C         -1.22852       -3.88221        0.28077
C         -1.06955       -3.25012        1.54098
C         -0.62688       -1.93814        1.56673
C         -0.41584       -1.24199        0.40590
C         -0.66792       -1.81696       -0.81103
C         -1.11549       -3.12154       -0.91064
O         -1.46204       -5.28149        0.21342
C         -1.34202       -3.97669        2.86733
H         -0.43680       -1.43936        2.50053
H         -0.49808       -1.22407       -1.69240
C         -1.44874       -3.68545       -2.30028
C          4.56813        0.77724       -0.58309
C          3.84263       -0.39729       -0.90645
C          2.50037       -0.44855       -0.57276
C          1.89658        0.57574        0.10778
C          2.61553        1.67184        0.50712
C          3.96623        1.78231        0.21766
O          5.88031        0.96485       -1.09303
C          4.46709       -1.58762       -1.65078
H          1.89714       -1.29125       -0.86106
H          2.10108        2.44850        1.04621
C          4.74839        2.99358        0.74986
C         -0.06153       -4.68840        3.32901
C         -1.77150       -2.97591        3.96448
C         -2.48815       -4.99294        2.71388
C         -0.17580       -4.27351       -2.92778
C         -2.54777       -4.75994       -2.21676
C         -1.98434       -2.56634       -3.22382
C         -0.27626       -6.06027        0.11409
H          0.74905       -3.97283        3.46517
H         -0.22064       -5.20312        4.27623
H          0.26556       -5.42400        2.59820
H         -2.61409       -2.37123        3.63087
H         -2.07651       -3.50194        4.86883
H         -0.95794       -2.30789        4.24327
H         -2.72548       -5.46313        3.66786
H         -3.38818       -4.50305        2.34369
H         -2.22622       -5.78286        2.01415
H          0.23578       -5.07008       -2.31224
H         -0.38104       -4.68266       -3.91662
H          0.59088       -3.50627       -3.03316
H         -2.21773       -5.62256       -1.64368
H         -3.43878       -4.35989       -1.73398
H         -2.82845       -5.11158       -3.20925
H         -1.21107       -1.84099       -3.47185
H         -2.34631       -2.98067       -4.16436
H         -2.81082       -2.03609       -2.75133
H         -0.27878       -6.61583       -0.82345
H          0.60506       -5.41875        0.15365
H         -0.24167       -6.77697        0.93453
C          5.92073        1.62249       -2.35335
C          5.96024       -1.73829       -1.30878
C          3.77636       -2.90972       -1.24266
C          4.28526       -1.38695       -3.16307
C          4.66591        4.14060       -0.26847
C          4.15257        3.47951        2.09100
C          6.21967        2.62947        1.02069
H          6.53271       -0.87558       -1.63983
H          6.09907       -1.83797       -0.23280
H          6.38525       -2.61936       -1.78896
H          4.29723       -3.76621       -1.67010
H          3.77235       -3.02683       -0.15930
H          2.74732       -2.95457       -1.59573
H          4.70716       -2.22174       -3.72207
H          3.22801       -1.31000       -3.41620
H          4.77205       -0.47508       -3.50071
H          3.62885        4.42441       -0.44584
H          5.20042        5.02004        0.08978
H          5.09739        3.85148       -1.22372
H          4.77875        4.25322        2.53472
H          3.16014        3.90818        1.96048
H          4.08063        2.65797        2.80335
H          6.28608        1.78704        1.70835
H          6.75685        3.46952        1.46028
H          6.73547        2.35320        0.10448
H          6.51840        2.53033       -2.27292
H          6.38814        0.97142       -3.09185
H          4.91211        1.87797       -2.68082
