111
-148.55557670
P         -2.54780        2.08254        1.10259
P          0.08094        0.39158        0.54291
C         -1.47191        1.59692        2.48050
C         -0.30691        0.90590        2.22543
C         -3.27405        3.76436        1.36879
C         -2.60637        4.80605        0.49790
C         -1.81597        1.90648        3.78091
H         -2.73794        2.42816        3.97878
C         -0.98452        1.53033        4.82192
H         -1.25282        1.77175        5.83749
C          0.18644        0.84440        4.56188
H          0.83240        0.54997        5.37257
C          0.52436        0.52713        3.25851
H          1.42572       -0.02324        3.03781
Pd        -1.35069        1.59145       -0.81000
Cl        -2.92401        2.69856       -1.96589
Cl        -0.09997        1.09033       -2.60890
C         -4.76955        3.53901        1.07903
C         -4.09254        1.07186        0.97757
H         -3.03447        5.79766        0.66210
H         -1.53358        4.86152        0.69755
H         -2.72995        4.56639       -0.55878
H         -4.96136        3.76658        0.02135
H         -5.38359        4.25109        1.65120
H         -4.19208        0.79907       -0.08165
C         -5.19363        2.07195        1.37701
C         -4.01171       -0.16515        1.84559
H         -3.12508        4.00125        2.42990
H         -5.39957        1.96112        2.45053
H         -6.13797        1.82506        0.86846
H         -4.93192       -0.75163        1.79308
H         -3.18310       -0.80762        1.53962
H         -3.84848        0.10443        2.89070
C         -1.09946       -3.94847       -0.16021
C         -1.12596       -3.42683        1.15906
C         -0.75896       -2.10529        1.34968
C         -0.45304       -1.29824        0.28575
C         -0.53453       -1.76798       -0.99769
C         -0.89182       -3.07831       -1.26070
O         -1.23863       -5.34553       -0.37469
C         -1.50301       -4.28169        2.37891
H         -0.69138       -1.69066        2.33969
H         -0.30535       -1.08476       -1.79687
C         -1.00876       -3.53661       -2.72222
C          4.44979        0.69975       -0.68181
C          3.94202       -0.51641       -0.15735
C          2.60673       -0.56445        0.20555
C          1.81236        0.54978        0.13212
C          2.32490        1.75515       -0.26835
C          3.65172        1.87260       -0.64979
O          5.73891        0.73295       -1.27699
C          4.79266       -1.78903       -0.02368
H          2.15794       -1.48780        0.52984
H          1.66224        2.60265       -0.30489
C          4.18588        3.24926       -1.07451
C         -0.23792       -4.94586        2.94305
C         -2.13625       -3.40772        3.48562
C         -2.54370       -5.35267        2.00467
C          0.36586       -4.01586       -3.21335
C         -2.04996       -4.66033       -2.87211
C         -1.47504       -2.36846       -3.62175
C         -0.00620       -6.05544       -0.37256
H         -0.47152       -5.54930        3.81983
H          0.23000       -5.59302        2.20510
H          0.49423       -4.19353        3.23580
H         -2.50828       -4.02728        4.30130
H         -1.41575       -2.71352        3.91547
H         -2.97535       -2.83384        3.09396
H         -2.85965       -5.91591        2.88240
H         -3.42590       -4.89178        1.56154
H         -2.14182       -6.06247        1.28593
H          0.72804       -4.85116       -2.61863
H          0.31869       -4.33773       -4.25331
H          1.10109       -3.21464       -3.14075
H         -2.17699       -4.93998       -3.91764
H         -1.75287       -5.55264       -2.32705
H         -3.01737       -4.34038       -2.48646
H         -1.68608       -2.71810       -4.63199
H         -2.38393       -1.91456       -3.22776
H         -0.71476       -1.59346       -3.70507
H          0.82485       -5.37538       -0.18076
H         -0.03033       -6.82633        0.39752
H          0.13830       -6.54232       -1.33681
C          5.74064        0.43413       -2.66756
C          6.26794       -1.44665        0.25155
C          4.30165       -2.64948        1.16353
C          4.66966       -2.61808       -1.31146
C          3.45033        4.37785       -0.31664
C          5.68309        3.39164       -0.74591
C          3.95209        3.43880       -2.58116
H          6.35755       -0.82448        1.14141
H          6.85727       -2.34978        0.40816
H          6.71198       -0.90465       -0.57947
H          4.25141       -2.05699        2.07671
H          3.31657       -3.07414        0.97533
H          4.97946       -3.48379        1.34278
H          5.02118       -2.05938       -2.17555
H          5.25380       -3.53541       -1.24279
H          3.63087       -2.89223       -1.49498
H          3.91186        5.34409       -0.51910
H          2.40691        4.45350       -0.61894
H          3.48549        4.20905        0.75932
H          6.28264        2.67969       -1.30745
H          6.04445        4.39041       -0.98956
H          5.86154        3.21546        0.31430
H          4.30360        4.41586       -2.91152
H          2.89109        3.36288       -2.81823
H          4.47410        2.68059       -3.15971
H          6.35714       -0.44523       -2.85303
H          4.72455        0.24632       -3.01702
H          6.16665        1.27090       -3.22091
