111
-148.55298512
P         -2.29495        2.31934        0.67765
P          0.11843        0.28574        0.42235
C         -1.28750        1.93999        2.13130
C         -0.26593        1.02295        2.02417
C         -2.53811        4.14167        0.49259
C         -2.17185        4.57607       -0.90989
C         -1.55686        2.53485        3.34721
H         -2.34660        3.26480        3.41900
C         -0.81253        2.19023        4.46221
H         -1.02268        2.65278        5.41273
C          0.19174        1.24690        4.35969
H          0.76451        0.96999        5.22945
C          0.46362        0.65913        3.13729
H          1.23703       -0.08735        3.04364
Pd        -1.47134        1.08438       -1.08930
Cl        -3.28046        1.63589       -2.29317
Cl        -0.59291       -0.31236       -2.61576
C         -4.02940        4.33283        0.83785
C         -4.05786        1.76824        0.84848
H         -2.79493        4.06240       -1.64466
H         -2.31466        5.65062       -1.04787
H         -1.12994        4.34002       -1.14035
H         -4.42914        5.18984        0.27626
H         -4.13707        4.59856        1.89975
H         -4.22066        1.01137        0.06934
C         -4.85737        3.05106        0.54183
C         -4.33643        1.18070        2.21606
H         -1.88949        4.63026        1.23241
H         -5.79146        3.04963        1.12216
H         -5.16490        3.05426       -0.51424
H         -5.35966        0.80492        2.28984
H         -3.65626        0.35651        2.44254
H         -4.20868        1.93505        2.99365
C         -1.03409       -4.11130        0.62890
C         -2.02859       -3.10051        0.66026
C         -1.61827       -1.77806        0.62829
C         -0.29579       -1.45267        0.47388
C          0.65821       -2.42511        0.32852
C          0.31728       -3.76713        0.36845
O         -1.38407       -5.46192        0.89466
C         -3.53151       -3.41277        0.73144
H         -2.33206       -0.97752        0.72282
H          1.67975       -2.11868        0.18862
C          1.40914       -4.82763        0.15721
C          4.40922        1.13772       -0.91378
C          3.52722        0.41476       -1.75835
C          2.23148        0.20282       -1.32045
C          1.81689        0.60385       -0.07761
C          2.70159        1.20232        0.78284
C          4.01525        1.44325        0.41564
O          5.64190        1.62317       -1.42117
C          3.91923       -0.14872       -3.13502
H          1.50907       -0.25652       -1.97106
H          2.35263        1.50038        1.75509
C          4.96729        2.01274        1.48186
C         -4.34545       -2.32123       -0.00094
C         -3.85495       -4.74958        0.03981
C         -3.97470       -3.45428        2.20144
C          2.52451       -4.28562       -0.76395
C          2.02800       -5.19765        1.51339
C          0.83697       -6.08366       -0.52521
C         -1.35105       -5.80711        2.27370
H         -4.31167       -1.37157        0.52925
H         -3.96460       -2.16429       -1.00985
H         -5.39443       -2.60584       -0.07874
H         -4.92838       -4.93687        0.03077
H         -3.50286       -4.74207       -0.99121
H         -3.37981       -5.58496        0.54778
H         -5.04165       -3.66070        2.28177
H         -3.44052       -4.22481        2.75245
H         -3.77765       -2.50046        2.69035
H          2.10327       -3.90591       -1.69424
H          3.08800       -3.48508       -0.28700
H          3.23603       -5.07189       -1.01516
H          1.28036       -5.60708        2.18854
H          2.81613       -5.94056        1.39336
H          2.46133       -4.31946        1.99153
H          0.35237       -5.82194       -1.46524
H          1.62370       -6.80688       -0.73842
H          0.09986       -6.57612        0.10424
H         -2.34135       -6.12937        2.59489
H         -0.65766       -6.63410        2.42602
H         -1.03468       -4.95215        2.87258
C          5.52815        2.91195       -2.00198
C          3.24286        0.68333       -4.23731
C          5.44167       -0.15712       -3.35668
C          3.44206       -1.61325       -3.24395
C          4.63773        3.49490        1.72402
C          4.78426        1.23310        2.80327
C          6.44626        1.87297        1.08096
H          3.56147        1.72320       -4.19635
H          3.48920        0.29484       -5.22506
H          2.15873        0.66350       -4.13041
H          5.69957       -0.65233       -4.29255
H          5.84022        0.85354       -3.39945
H          5.94519       -0.68057       -2.54466
H          2.35758       -1.69176       -3.19063
H          3.75314       -2.05399       -4.19068
H          3.86607       -2.21314       -2.43965
H          4.77144        4.08147        0.81721
H          3.60474        3.61608        2.04878
H          5.28316        3.91632        2.49428
H          4.92981        0.16520        2.64279
H          5.50547        1.56190        3.55111
H          3.79165        1.37855        3.22608
H          6.68246        0.83742        0.83863
H          7.10428        2.19218        1.88885
H          6.67803        2.48045        0.20941
H          4.81031        2.89148       -2.82043
H          5.18913        3.62968       -1.25700
H          6.50140        3.22147       -2.38347
