111
-148.54766481
P         -2.22609        2.38419        0.78080
P         -0.10201        0.04008        0.52491
C         -1.38452        1.76544        2.25970
C         -0.45525        0.75616        2.14210
C         -2.18725        4.23540        0.77886
C         -1.58981        4.77231       -0.50333
C         -1.63220        2.33427        3.49267
H         -2.34793        3.13591        3.57499
C         -0.94937        1.88389        4.60929
H         -1.14393        2.32587        5.57284
C         -0.01065        0.87765        4.48754
H          0.52896        0.53355        5.35450
C          0.24262        0.31749        3.24833
H          0.99084       -0.45131        3.13274
Pd        -1.33902        1.24702       -1.02576
Cl        -2.76328        2.40045       -2.32168
Cl        -0.32634        0.15868       -2.70963
C         -3.66679        4.61759        0.99184
C         -4.05368        2.09223        0.76202
H         -1.52639        5.86297       -0.49132
H         -0.58596        4.37586       -0.67166
H         -2.20223        4.48894       -1.36041
H         -3.87871        5.56453        0.47426
H         -3.85321        4.81566        2.05757
H         -4.25109        1.42242       -0.08639
C         -4.62885        3.49945        0.50105
C         -4.52702        1.45898        2.05278
H         -1.57216        4.53453        1.63865
H         -5.61114        3.59135        0.98698
H         -4.81664        3.63028       -0.57489
H         -4.34098        2.12172        2.89929
H         -5.59960        1.25231        2.02774
H         -4.00550        0.51883        2.24826
C         -0.92270       -4.45035        0.35179
C         -1.04181       -3.76434        1.58731
C         -0.76895       -2.40680        1.61362
C         -0.46806       -1.71835        0.46658
C         -0.47493       -2.35924       -0.74462
C         -0.72099       -3.71692       -0.84416
O         -0.98123       -5.86912        0.31186
C         -1.44014       -4.47056        2.89334
H         -0.79341       -1.86554        2.54165
H         -0.29854       -1.76864       -1.62505
C         -0.73922       -4.37800       -2.23152
C          4.12493        1.18901       -0.72293
C          3.29161        2.12262       -0.05137
C          2.02864        1.70919        0.34020
C          1.56775        0.45405        0.03532
C          2.32127       -0.40579       -0.71924
C          3.58582       -0.05143       -1.15776
O          5.50732        1.46030       -0.88928
C          3.70558        3.57120        0.25629
H          1.38416        2.36903        0.89692
H          1.90660       -1.36406       -0.97797
C          4.29330       -1.00288       -2.13778
C         -0.17505       -4.96455        3.61119
C         -2.19086       -3.49810        3.83222
C         -2.39155       -5.64969        2.61965
C         -1.15091       -3.36104       -3.32065
C          0.66540       -4.90399       -2.56414
C         -1.76175       -5.52767       -2.27853
C          0.27495       -6.50956        0.49662
H          0.48749       -4.13045        3.84135
H         -0.42663       -5.46388        4.54652
H          0.38046       -5.66665        2.99424
H         -3.02621       -3.02706        3.31471
H         -2.58903       -4.02670        4.69806
H         -1.53584       -2.71480        4.21079
H         -2.72450       -6.10889        3.55011
H         -3.27203       -5.31301        2.07341
H         -1.90761       -6.42195        2.02724
H         -1.29117       -3.85742       -4.28050
H         -2.08708       -2.86873       -3.05896
H         -0.38982       -2.59582       -3.46597
H          1.39410       -4.09436       -2.54795
H          0.98758       -5.65219       -1.84450
H          0.68771       -5.35864       -3.55420
H         -1.49346       -6.32488       -1.58951
H         -2.75394       -5.16984       -2.00565
H         -1.81959       -5.96020       -3.27703
H          0.24236       -7.13036        1.39167
H          0.48301       -7.15564       -0.35614
H          1.06950       -5.76890        0.59575
C          6.29466        0.96502        0.18052
C          2.54264        4.52675       -0.09311
C          4.02951        3.70194        1.75336
C          4.92064        4.01735       -0.57538
C          5.52913       -0.36295       -2.79329
C          4.71224       -2.28330       -1.39681
C          3.31644       -1.36861       -3.27737
H          2.22356        4.38308       -1.12507
H          1.68108        4.36844        0.55332
H          2.84605        5.56687        0.02326
H          4.86102        3.05812        2.03339
H          4.29904        4.72724        2.00546
H          3.17106        3.42045        2.36267
H          5.14272        5.07176       -0.41287
H          5.80918        3.44918       -0.30981
H          4.73400        3.86835       -1.63832
H          5.26722        0.58465       -3.26275
H          6.30776       -0.16732       -2.05992
H          5.95162       -1.01596       -3.55660
H          5.20049       -2.98322       -2.07443
H          5.40618       -2.05826       -0.58864
H          3.84760       -2.78497       -0.96329
H          2.44861       -1.91126       -2.90792
H          3.80317       -1.99847       -4.02145
H          2.95802       -0.46974       -3.77816
H          7.34646        1.16615       -0.02392
H          6.00953        1.45394        1.11061
H          6.14628       -0.10869        0.28791
