72
-98.09362544
Fe        -0.00999        2.78539       -0.01804
P          1.82134       -0.07927       -0.04210
P         -1.89237       -0.08526       -0.09949
C          1.41382        1.58649        0.62033
C          0.45588        1.87989        1.67353
C          0.44013        3.31710        1.88959
C          1.39820        3.91670        0.97876
C          2.00311        2.84927        0.19988
C         -1.42503        1.54851       -0.78706
C         -2.00108        2.83349       -0.42659
C         -1.34315        3.86508       -1.21040
C         -0.34737        3.21939       -2.04446
C         -0.40392        1.79140       -1.79133
C          3.01675       -0.85342        1.13789
C          4.32063       -0.12565        0.77476
C          3.01621        0.13030       -1.45179
C          4.39287        0.21297       -0.74516
C         -3.36179       -0.72553       -1.02539
C         -4.52936       -0.22043       -0.16071
C         -2.66008        0.08787        1.57975
C         -4.15534       -0.21480        1.34621
H         -0.11576        1.14399        2.23901
H         -0.16632        3.84863        2.62693
H          1.63638        4.98014        0.90485
H          2.77795        2.97063       -0.55989
H         -2.81289        2.98655        0.28796
H          0.22490        1.03264       -2.25624
Cl         1.56003       -3.07570       -0.35689
Cl        -1.67212       -3.05286        0.06137
Pd        -0.03753       -1.50539       -0.10592
H          3.09456       -1.91709        0.88675
C          2.56198       -0.68466        2.58178
H          2.76097        1.07663       -1.94349
C          2.95667       -1.01143       -2.46396
H          5.19406       -0.71786        1.08879
H          4.37084        0.80227        1.36291
H          4.84180        1.20616       -0.89421
H          5.08156       -0.48613       -1.23975
H         -1.56015        4.93482       -1.17776
H          0.31707        3.71775       -2.75326
H          2.48764        0.38712        2.80816
H          3.82005       -0.93269       -3.13944
H         -3.31274       -1.81986       -0.99541
C         -3.40234       -0.24544       -2.47114
H         -2.51258        1.13195        1.87989
C         -2.00574       -0.85473        2.58562
H         -5.43088       -0.82586       -0.34262
H         -4.78852        0.79880       -0.48062
H         -4.78310        0.49752        1.90199
H         -4.38551       -1.19985        1.77421
H         -4.38334       -0.48713       -2.90344
H         -0.91416       -0.75983        2.52668
C          3.48218       -1.37190        3.57896
H          4.49512       -0.96881        3.52712
H          3.13400       -1.25282        4.60749
H          3.55076       -2.44244        3.37685
C          1.67685       -1.05425       -3.28113
H          0.80701       -1.20288       -2.64300
H          1.52636       -0.12460       -3.83299
H          1.68383       -1.86924       -4.00853
C         -2.29542       -0.84444       -3.32238
H         -2.33058       -0.48902       -4.35465
H         -1.31483       -0.59071       -2.92128
H         -2.35909       -1.93396       -3.34462
C         -2.47296       -0.61764        4.01358
H         -2.24690        0.40023        4.33708
H         -3.55208       -0.75201        4.10616
H         -1.99526       -1.30079        4.71954
H          1.53888       -1.07258        2.68236
H          3.09718       -1.95910       -1.92842
H         -3.34307        0.85082       -2.48251
H         -2.21153       -1.88998        2.28250
