72
-108.40167978
Cl        -1.87836        0.23666        2.76584
Cl         0.89005       -1.20585        2.72601
P          1.21515       -1.02476       -0.34168
P         -2.23080        0.17552       -0.37502
C         -3.36342       -1.34901       -0.22345
C         -4.19541       -1.20659        1.04787
C         -4.29405       -1.50259       -1.43179
C         -3.17653        1.81736       -0.12853
C         -4.48790        1.77983       -0.90649
C         -1.43153        0.39495       -2.06661
C         -1.37334       -0.84109       -2.94339
C          1.15387        0.31790       -1.56127
C         -0.05157        1.03130       -1.98270
C          0.38609        2.17973       -2.77760
C          1.83391        2.16662       -2.84122
C          2.30623        1.00937       -2.10657
C         -2.49405       -2.59765       -0.10125
H         -3.55967       -1.04096        1.91679
H         -4.90748       -0.38683        0.97489
H         -3.78633       -1.96882       -2.27310
H         -4.70049       -0.55226       -1.76735
C         -3.45161        2.08940        1.34591
H         -4.31473        1.55586       -1.95944
H         -4.98841        2.74830       -0.85764
H         -2.09411        1.11412       -2.56190
H         -0.84252       -1.64705       -2.44492
H         -0.82866       -0.63272       -3.86653
H         -2.35865       -1.19887       -3.23294
H         -0.26963        2.86496       -3.31729
H          2.45897        2.87915       -3.38366
Pd        -0.48817       -0.40366        1.12961
H          3.34587        0.72365       -1.93411
C         -2.31273        2.95141       -0.67779
H         -5.17835        1.04305       -0.49990
H         -2.52060        2.22126        1.89572
H         -4.03469        3.00328        1.46917
H         -4.00663        1.28021        1.81522
H         -1.29963        2.87821       -0.29449
H         -2.26419        2.93991       -1.76607
H         -2.71416        3.92365       -0.38645
H         -4.77084       -2.11508        1.23415
H         -5.13550       -2.15202       -1.18494
H         -1.88815       -2.57622        0.80430
H         -3.11341       -3.49480       -0.05363
H         -1.82998       -2.70455       -0.95648
C          2.90302       -1.09908        0.30825
C          3.39409       -2.13416        1.06403
C          4.71744       -1.82220        1.37581
C          4.98116       -0.60725        0.79294
O          3.87619       -0.15241        0.13306
H          2.84966       -3.01422        1.36504
H          5.39839       -2.41767        1.96175
H          5.92238       -0.07364        0.84085
C          0.81027       -2.65080       -0.99701
C          0.56512       -3.71928       -0.17122
C          0.28449       -4.81318       -0.99138
C          0.37154       -4.36377       -2.28660
O          0.69128       -3.03579       -2.30468
H          0.57750       -3.69756        0.90716
H          0.04634       -5.81411       -0.67055
H          0.21155       -4.96146       -3.17541
Fe         1.22272        2.24288       -0.86281
C          2.87050        2.66214        0.25277
C          1.88398        1.92884        1.02081
C          0.66550        2.71048        1.06366
C          0.87884        3.90850        0.27163
C          2.24128        3.87824       -0.23046
H          3.89866        2.34291        0.06714
H          2.04778        0.98338        1.54295
H         -0.22868        2.44878        1.63262
H          0.16438        4.72292        0.13048
H          2.72166        4.65365       -0.83198
