111
-148.55480427
P         -1.84609        2.74152        0.02131
P         -0.42174       -0.03526        0.57434
C         -1.68600        2.12600        1.72221
C         -1.12821        0.88591        1.95258
C         -0.85985        4.28475       -0.22330
C          0.28720        4.03426       -1.17959
C         -2.09922        2.90134        2.78657
H         -2.50260        3.88388        2.60344
C         -1.97410        2.42057        4.07864
H         -2.30020        3.02409        4.90993
C         -1.42741        1.17167        4.30469
H         -1.32566        0.80009        5.31104
C         -0.99356        0.40513        3.23774
H         -0.53448       -0.55814        3.39670
Pd        -1.33000        0.92563       -1.30730
Cl        -2.18223        2.10148       -3.01912
Cl        -0.77900       -0.89311       -2.50361
C         -1.90321        5.29783       -0.73575
C         -3.54156        3.36887       -0.37914
H          0.87620        4.93959       -1.34439
H          0.95753        3.25688       -0.80591
H         -0.08715        3.70064       -2.14955
H         -1.83180        5.35163       -1.83072
H         -1.66347        6.30979       -0.37588
H         -3.74330        3.04589       -1.40895
C         -3.35202        4.89584       -0.33592
C         -4.59973        2.82564        0.55767
H         -0.49342        4.57339        0.77047
H         -3.56702        5.25228        0.68084
H         -4.09089        5.39129       -0.98424
H         -5.59467        3.18548        0.28584
H         -4.61830        1.73342        0.54225
H         -4.41107        3.13455        1.58621
C         -0.88926       -4.55989        0.62692
C          0.37447       -3.98260        0.91217
C          0.48257       -2.60210        0.89760
C         -0.61322       -1.80901        0.67824
C         -1.85605       -2.35846        0.50497
C         -2.03591       -3.73240        0.51256
O         -0.99731       -5.96077        0.41858
C          1.62953       -4.82732        1.18169
H          1.43675       -2.12396        1.03516
H         -2.68656       -1.69351        0.33878
C         -3.45515       -4.29765        0.34662
C          3.88946        1.26838       -0.09891
C          3.29453        0.31628       -0.96555
C          1.99052       -0.07290       -0.71408
C          1.27435        0.47719        0.31549
C          1.80608        1.47753        1.08666
C          3.10041        1.92449        0.88096
O          5.27881        1.54685       -0.19807
C          4.04472       -0.30778       -2.15234
H          1.49835       -0.79881       -1.33751
H          1.19103        1.90922        1.85621
C          3.63429        3.08995        1.72912
C          2.32908       -5.13695       -0.15065
C          2.62054       -4.06197        2.08827
C          1.27058       -6.13460        1.91095
C         -3.60841       -5.64529        1.07491
C         -4.49941       -3.33650        0.95919
C         -3.76125       -4.46342       -1.14989
C         -0.82973       -6.35979       -0.93631
H          1.68395       -5.70972       -0.81196
H          2.59713       -4.21591       -0.66732
H          3.24051       -5.71200        0.01083
H          3.44788       -4.70563        2.38638
H          3.05329       -3.20269        1.57778
H          2.12633       -3.71161        2.99405
H          2.16597       -6.70537        2.15583
H          0.73876       -5.92313        2.83800
H          0.63392       -6.76857        1.29885
H         -4.63239       -6.01214        1.00874
H         -2.95953       -6.40506        0.64709
H         -3.35214       -5.54286        2.12885
H         -5.49008       -3.79060        0.95852
H         -4.24371       -3.09257        1.98999
H         -4.57399       -2.40820        0.39488
H         -3.06254       -5.14953       -1.62220
H         -4.76854       -4.84995       -1.30255
H         -3.68402       -3.50697       -1.66649
H         -0.61834       -5.49326       -1.56426
H         -0.00751       -7.07157       -1.00822
H         -1.73576       -6.85209       -1.28896
C          6.09793        0.72065        0.61956
C          3.05756       -0.71853       -3.26915
C          5.03188        0.69760       -2.77196
C          4.79237       -1.56277       -1.67681
C          4.28754        2.53389        3.00320
C          4.64834        3.93277        0.93439
C          2.48770        4.04127        2.14111
H          3.59431       -1.03682       -4.16245
H          2.42635       -1.55146       -2.96285
H          2.41386        0.11628       -3.54514
H          4.51346        1.60669       -3.07494
H          5.80945        0.97691       -2.06529
H          5.52045        0.27653       -3.65028
H          4.09680       -2.28817       -1.25602
H          5.31979       -2.03984       -2.50242
H          5.52159       -1.32051       -0.90778
H          5.11607        1.87140        2.76521
H          4.66991        3.33955        3.62945
H          3.56579        1.96461        3.58856
H          4.20357        4.29408        0.00768
H          4.97828        4.79619        1.51155
H          5.53107        3.35310        0.67642
H          1.93453        4.38178        1.26708
H          2.88043        4.92168        2.64925
H          1.78949        3.56262        2.82608
H          6.65733        1.33963        1.32075
H          5.48705        0.00535        1.17176
H          6.81293        0.18421       -0.00400
