171
-217.83695257
P         -1.46954        0.36952       -0.36839
P          1.72385       -0.60698       -0.20306
C         -0.62577        1.24055       -1.70073
C          1.02340       -1.54031       -1.58774
C          0.11571        0.53608       -2.63988
C          0.78303        1.24390       -3.65796
C          0.67159        2.62350       -3.70710
C         -0.06316        3.30784       -2.76308
C         -0.70359        2.61155       -1.75687
C          1.20239       -2.90364       -1.57772
C          0.58543       -3.70151       -2.52084
C         -0.23940       -3.12808       -3.46399
C         -0.43351       -1.75826       -3.50072
C          0.23142       -0.94254       -2.56451
Cl         1.36887       -0.57630        3.02464
Cl        -1.75871       -1.22967        2.59083
C         -1.36866       -1.18713       -4.50964
C          1.59480        0.52097       -4.67660
H         -0.13761        4.38178       -2.81175
H         -1.25975        3.14565       -1.00468
H          1.83140       -3.35354       -0.82824
H          0.73524       -4.76882       -2.50731
H          1.17160        3.16369       -4.49298
H         -0.74705       -3.74643       -4.18513
C         -4.06929       -3.02602       -1.86627
C         -3.04965       -3.30081       -0.96492
C         -2.27552       -2.23754       -0.52162
C         -2.50962       -0.96165       -0.97205
C         -3.50989       -0.71141       -1.87896
C         -4.31390       -1.74524       -2.34621
H         -4.70132       -3.83159       -2.19143
H         -1.48157       -2.40148        0.18458
H         -3.65354        0.29520       -2.22770
C         -3.98810        3.47858        1.80721
C         -3.10472        2.71341        2.55547
C         -2.35406        1.75497        1.88966
C         -2.48324        1.56775        0.53430
C         -3.37147        2.33180       -0.18471
C         -4.13557        3.31213        0.43685
H         -4.58335        4.22078        2.30661
H         -1.67389        1.13488        2.44083
H         -3.44432        2.17757       -1.24681
C          4.70435       -3.10131        2.13197
C          5.16213       -1.96897        1.46827
C          4.24078       -1.21895        0.74656
C          2.92271       -1.59893        0.69427
C          2.48943       -2.71970        1.35770
C          3.37261       -3.49609        2.09398
H          5.40715       -3.67824        2.70304
H          4.53990       -0.32324        0.23208
H          1.44195       -2.97199        1.33234
C          3.21951        3.62537       -0.82248
C          2.20729        3.39095        0.09875
C          1.77114        2.08352        0.25929
C          2.30971        1.06566       -0.49133
C          3.30834        1.31543       -1.40011
C          3.79155        2.60680       -1.57706
H          3.57573        4.63133       -0.93987
H          1.00485        1.85335        0.97712
H          3.71882        0.49591       -1.96571
Pd        -0.07137       -0.47770        1.30307
C         -4.05417       -5.17541        0.35461
C         -2.82566       -4.73269       -0.45921
C         -1.57846       -4.82689        0.44340
C         -2.62770       -5.67729       -1.65917
H         -3.92338       -6.18604        0.74097
H         -4.21451       -4.50764        1.20090
H         -4.95630       -5.16385       -0.25613
H         -0.68593       -4.50034       -0.08907
H         -1.69107       -4.21335        1.33703
H         -1.41240       -5.85347        0.76941
H         -3.50918       -5.69919       -2.29857
H         -1.78233       -5.35586       -2.26620
H         -2.43439       -6.69652       -1.32512
C         -5.41078       -2.48185       -4.49432
C         -5.48362       -1.49793       -3.31029
C         -5.45859       -0.06382       -3.87450
C         -6.80463       -1.70551       -2.54861
H         -6.22100       -2.29929       -5.20011
H         -4.46938       -2.37480       -5.03166
H         -5.49199       -3.51573       -4.16198
H         -4.51748        0.14021       -4.38496
H         -6.26509        0.08392       -4.59260
H         -5.58910        0.67194       -3.08193
H         -6.87300       -1.02076       -1.70340
H         -7.66241       -1.52920       -3.19740
H         -6.87860       -2.72154       -2.16193
C         -1.89800        2.03667        4.69307
C         -3.00949        2.90958        4.07552
C         -4.35313        2.51624        4.71466
C         -2.69730        4.38450        4.38982
H         -1.82462        2.20618        5.76706
H         -2.09989        0.97644        4.54237
H         -0.92754        2.26838        4.25493
H         -4.31926        2.63083        5.79792
H         -5.16534        3.13648        4.33694
H         -4.59440        1.47709        4.49166
H         -1.76244        4.68893        3.92113
H         -3.48423        5.04484        4.02793
H         -2.60134        4.54145        5.46406
C         -4.68451        5.68227       -0.16575
C         -5.10517        4.21143       -0.34277
C         -6.53274        4.00804        0.19636
C         -5.10039        3.88309       -1.84865
H         -4.72264        5.98258        0.88070
H         -3.66547        5.83581       -0.52081
H         -5.34157        6.34638       -0.72705
H         -6.60068        4.27753        1.24966
H         -7.24781        4.62147       -0.35157
H         -6.83595        2.96586        0.09732
H         -5.78845        4.53332       -2.38874
H         -4.10856        4.02313       -2.27840
H         -5.41277        2.85451       -2.02530
C          7.52606       -2.72301        1.08159
C          6.63961       -1.56548        1.57776
C          6.96852       -1.25090        3.04838
C          6.95188       -0.31799        0.72884
H          7.28408       -2.97758        0.04987
H          8.58080       -2.45164        1.12365
H          7.38929       -3.61737        1.68812
H          6.80830       -2.12097        3.68405
H          8.00806       -0.94283        3.15899
H          6.33548       -0.44506        3.41942
H          6.73495       -0.50017       -0.32322
H          6.36802        0.54028        1.06091
H          8.00525       -0.04930        0.80724
C          3.95409       -5.44936        3.61897
C          2.83676       -4.71946        2.84996
C          2.20991       -5.70288        1.84418
C          1.76688       -4.25825        3.85834
H          3.55709       -6.31606        4.14738
H          4.73018       -5.80346        2.94067
H          4.41314       -4.79409        4.35899
H          1.37854       -5.24537        1.30967
H          2.94637       -6.02131        1.10666
H          1.83170       -6.59095        2.35015
H          2.18517       -3.53541        4.55830
H          0.92555       -3.78296        3.35533
H          1.37997       -5.10075        4.43105
C          0.48949        4.07624        1.84975
C          1.63381        4.54761        0.93035
C          1.07913        5.63558       -0.00706
C          2.75272        5.13836        1.80682
H         -0.32820        3.64709        1.27160
H          0.83859        3.32977        2.56272
H          0.08638        4.91269        2.41965
H          0.67512        6.47165        0.56356
H          1.85265        6.02573       -0.66718
H          0.27761        5.23644       -0.62682
H          2.37528        5.95165        2.42642
H          3.16721        4.37572        2.46592
H          3.56561        5.53173        1.19744
C          4.54827        2.41332       -3.96449
C          4.95371        2.85918       -2.54955
C          6.18078        2.05209       -2.08826
C          5.34090        4.34980       -2.60318
H          5.35168        2.59806       -4.67741
H          4.31973        1.34894       -3.99089
H          3.66782        2.95973       -4.30052
H          7.03475        2.23127       -2.74126
H          6.46619        2.33089       -1.07410
H          5.97327        0.98289       -2.09797
H          4.50168        4.96094       -2.93507
H          5.66598        4.70670       -1.62609
H          6.16208        4.51077       -3.30160
H         -1.49477       -0.11149       -4.38069
H          0.95474       -0.00079       -5.38836
H         -2.35377       -1.64486       -4.41741
H         -1.00997       -1.36779       -5.52399
H          2.24359       -0.21826       -4.20408
H          2.22519        1.20559       -5.24511
