64
-97.21563533
Cl        -1.56983       -1.09544       -2.68403
Cl         1.52698       -1.43622       -2.94255
P          1.90840       -0.65439        0.26683
C          2.09580       -2.32612        1.04329
C          3.69453       -0.28179       -0.08925
P         -1.24949       -0.12208        0.46758
C          1.29057        0.59084        1.45306
C         -0.13140        0.84575        1.54710
C         -0.32366        1.96019        2.46361
C          0.98516        2.39251        2.92223
C          1.98658        1.53598        2.31176
H         -1.28286        2.36742        2.78856
H          1.18029        3.19886        3.63271
Pd         0.14721       -0.93177       -1.24829
H          3.06747        1.59759        2.45224
C         -5.00313        2.11257       -0.86155
C         -4.03949        2.78106       -0.13360
C         -2.89941        2.11449        0.27484
C         -2.71904        0.78840       -0.04859
C         -3.68383        0.11962       -0.76728
C         -4.82761        0.78050       -1.17812
H         -5.89240        2.63029       -1.18242
H         -4.17431        3.82088        0.11561
H         -2.14345        2.63064        0.83918
H         -3.53525       -0.91959       -1.01261
H         -5.57764        0.25587       -1.74692
C         -2.60199       -3.94309        2.51711
C         -2.37537       -2.80387        3.26513
C         -1.97016       -1.63818        2.63967
C         -1.79227       -1.62489        1.27576
C         -2.02462       -2.75378        0.52453
C         -2.42962       -3.92013        1.14671
H         -2.91743       -4.85160        3.00379
H         -2.51273       -2.82205        4.33382
H         -1.78499       -0.73976        3.20703
H         -1.89776       -2.71123       -0.54563
H         -2.61171       -4.80723        0.56260
C          4.02861       -0.37743       -1.56212
H          3.88797        0.73261        0.28358
C          4.43446       -1.33630        0.75713
H          4.64550       -0.93292        1.75838
C          3.59745       -2.63629        0.89098
H          5.41564       -1.55009        0.30854
C          1.63306       -2.29123        2.48373
H          1.48278       -3.02371        0.45624
H          3.93986       -3.23190        1.74944
H          3.76237       -3.26882        0.00667
H          2.22193       -1.57337        3.05819
H          0.58718       -1.98879        2.55805
H          1.73686       -3.26736        2.96337
H          5.08930       -0.19147       -1.74417
H          3.79943       -1.37474       -1.94067
H          3.45869        0.33677       -2.15777
Fe         0.86264        2.47714        0.86638
C          2.21620        3.18898       -0.49205
C          1.40243        4.27574        0.02632
C          0.01407        3.98088       -0.28367
C         -0.02652        2.71509       -0.99292
C          1.33165        2.23091       -1.12728
H          3.30609        3.12669       -0.44976
H          1.77136        5.16667        0.53956
H         -0.84366        4.61677       -0.05408
H         -0.91357        2.23514       -1.41035
H          1.62782        1.33233       -1.67004
