105
-153.06074871
Cl         0.53740        3.75968        1.35884
Pd        -0.11360        1.95579        0.17600
P         -0.73459        0.21485       -1.31590
N          0.17641       -1.18392       -1.91347
C          0.26892       -2.50493       -1.48559
C         -0.08448       -2.96551       -0.18737
C          0.22908       -4.29276        0.18121
C          0.06818       -4.72451        1.62096
C         -0.08011       -6.24322        1.78777
C          1.05392       -6.97094        1.05980
C          1.05690       -6.62811       -0.43954
C          0.76529       -5.17954       -0.75594
C          1.03516       -4.72425       -2.03915
C          0.81357       -3.41787       -2.38825
H          1.06806       -3.07708       -3.37700
H          1.44632       -5.41075       -2.76002
H          2.02343       -6.89650       -0.88487
H          2.01413       -6.67798        1.50288
H         -0.11043       -6.52295        2.85039
H          0.94571       -4.37799        2.18002
C         -0.69552       -2.07912        0.83960
C          0.11018       -1.07546        1.43846
C         -0.37740       -0.37510        2.54220
C         -1.63382       -0.63215        3.02620
C         -2.45859       -1.58386        2.43312
C         -3.82271       -1.81526        3.04130
C         -4.73570       -2.77741        2.25893
C         -3.93550       -3.91239        1.61175
C         -2.87018       -3.33947        0.66760
C         -1.99156       -2.31070        1.33420
H         -2.25812       -4.14468        0.24514
H         -4.59866       -4.61006        1.08093
H         -5.26664       -2.22265        1.47619
H         -4.31754       -0.84328        3.16284
H         -2.00239       -0.08257        3.87573
H          0.23458        0.38611        2.99018
N          1.28350       -0.71579        0.78097
P          1.81428        0.91173        0.98937
C          2.93204        1.37140       -0.32928
C          3.48142        0.39970       -1.13108
C          4.25590        0.76623       -2.21691
C          4.47144        2.10636       -2.51098
C          3.91066        3.07166       -1.68504
C          3.13529        2.70329       -0.60120
H          2.64657        3.44408        0.01185
H          4.07190        4.11316       -1.90462
C          5.31192        2.50063       -3.67519
H          4.69200        0.01122       -2.84849
H          3.29241       -0.63919       -0.91382
C          2.56907        1.06250        2.60612
C          3.28527       -0.00681        3.08833
C          3.87573        0.06944        4.33768
C          3.74447        1.21498        5.11176
C          3.02237        2.28617        4.60255
C          2.43435        2.20628        3.35485
H          1.86254        3.02802        2.95846
H          2.92349        3.18299        5.18999
C          4.39933        1.30818        6.44604
H          4.44182       -0.76302        4.71923
H          3.36925       -0.89848        2.48674
H          1.15425       -0.83720       -0.22270
H          0.40360       -0.99945       -2.88271
C         -0.60060        1.37606       -2.68380
C          0.66348        1.77375       -3.04885
C          0.82913        2.67742       -4.08230
C         -0.27285        3.19178       -4.75172
C         -1.54084        2.76989       -4.37367
C         -1.70397        1.86648       -3.33984
H         -2.68785        1.55035       -3.03479
H         -2.40108        3.15769       -4.89204
C         -0.09713        4.15087       -5.87718
H          1.81771        2.99260       -4.36924
H          1.51659        1.39039       -2.51263
C         -2.45601       -0.26736       -1.20143
C         -2.94623       -1.10435       -2.17539
C         -4.27989       -1.47373       -2.15937
C         -5.12950       -1.00463       -1.16715
C         -4.61433       -0.16194       -0.19097
C         -3.28153        0.20396       -0.20915
H         -2.88184        0.85806        0.54829
H         -5.26301        0.20893        0.58399
C         -6.55842       -1.42288       -1.14421
H         -4.66826       -2.13323       -2.91652
H         -2.28024       -1.46825       -2.94206
Cl        -2.07342        2.95523       -0.28640
H          0.31598       -7.24820       -0.95835
H         -1.04379       -6.56132        1.37039
H          0.97951       -8.05693        1.21252
H         -0.78240       -4.21092        2.08142
H         -3.44644       -4.50549        2.39460
H         -3.35834       -2.87167       -0.19342
H         -3.67997       -2.19669        4.05954
H         -5.52264       -3.18240        2.91063
H          5.00382        3.46839       -4.07352
H          6.36179        2.57326       -3.38818
H          5.23274        1.77111       -4.48245
H          4.47425        0.32727        6.91749
H          5.40699        1.71595        6.35513
H          3.83361        1.95529        7.11781
H         -0.03543        3.62327       -6.82995
H         -0.93307        4.84960       -5.93220
H          0.81535        4.73652       -5.75671
H         -7.12105       -0.87706       -0.38557
H         -7.03366       -1.23681       -2.10839
H         -6.64704       -2.48796       -0.92479
