171
-217.83967637
P         -1.53007        0.22299       -0.20955
P          1.67198       -0.69818        0.22921
C         -0.72135        0.76990       -1.72303
C          0.82037       -1.88796       -0.82937
C          0.04816       -0.13853       -2.43903
C          0.71191        0.29491       -3.60279
C          0.53629        1.60182       -4.02855
C         -0.25240        2.48275       -3.31777
C         -0.87890        2.06128       -2.16163
C          0.82740       -3.18012       -0.35923
C          0.15242       -4.17410       -1.04102
C         -0.54156       -3.85894       -2.18919
C         -0.57603       -2.56097       -2.67027
C          0.12453       -1.55073       -1.98436
Cl         1.11714       -0.29803        3.44301
Cl        -1.94899       -0.91311        2.90816
C         -1.37267       -2.26648       -3.89302
C          1.57435       -0.63346       -4.38436
H         -0.37659        3.49693       -3.66067
H         -1.50125        2.73927       -1.60329
H          1.35723       -3.40624        0.55455
H          0.16188       -5.18652       -0.67167
H          1.01870        1.92554       -4.93497
H         -1.07951       -4.62574       -2.72083
C         -4.56418       -2.94960       -1.32382
C         -3.75522       -3.16267       -0.21494
C         -2.84910       -2.16838        0.12722
C         -2.74220       -1.02986       -0.63024
C         -3.53052       -0.84795       -1.74045
C         -4.46970       -1.80541       -2.10620
H         -5.29877       -3.69180       -1.57578
H         -2.22874       -2.26763        0.99902
H         -3.39187        0.03885       -2.33378
C         -3.77878        3.76911        1.55733
C         -4.12483        3.28484        0.30345
C         -3.42172        2.19146       -0.18638
C         -2.40230        1.62315        0.53879
C         -2.08080        2.11942        1.78064
C         -2.77165        3.19514        2.32062
H         -4.31087        4.61508        1.95210
H         -3.66275        1.77936       -1.14960
H         -1.29074        1.66156        2.34453
C          5.64813       -2.55636        1.35264
C          5.20275       -2.63622        0.03921
C          3.96709       -2.07603       -0.26066
C          3.22360       -1.46151        0.71742
C          3.68003       -1.39427        2.00867
C          4.90582       -1.94536        2.35552
H          6.60271       -2.98227        1.60181
H          3.56980       -2.11840       -1.26068
H          3.05946       -0.91688        2.74391
C          2.88617        3.37205       -1.35975
C          1.91123        3.32253       -0.36992
C          1.51464        2.07240        0.08759
C          2.07866        0.92796       -0.42706
C          3.05403        0.99968       -1.39099
C          3.48237        2.22876       -1.87591
H          3.20995        4.32568       -1.73180
H          0.77027        1.99497        0.85983
H          3.49166        0.08549       -1.75109
Pd        -0.18038       -0.41208        1.61555
C         -3.65039       -5.66559       -0.32794
C         -3.88561       -4.45776        0.59791
C         -5.29684       -4.53366        1.20703
C         -2.85287       -4.51538        1.74146
H         -4.38689       -5.70119       -1.12969
H         -2.66204       -5.61327       -0.78366
H         -3.71670       -6.60122        0.22699
H         -6.06203       -4.54331        0.43164
H         -5.41571       -5.43671        1.80547
H         -5.48361       -3.67437        1.85085
H         -3.00093       -3.69787        2.44666
H         -2.94192       -5.44871        2.29697
H         -1.83586       -4.45686        1.35409
C         -4.99379       -0.40335       -4.16424
C         -5.43451       -1.58838       -3.28161
C         -6.83511       -1.29103       -2.71810
C         -5.49270       -2.84935       -4.16615
H         -5.65750       -0.29197       -5.02155
H         -5.01916        0.53415       -3.60978
H         -3.98333       -0.55246       -4.54388
H         -7.19672       -2.12147       -2.11227
H         -6.81591       -0.40191       -2.08802
H         -7.55250       -1.12184       -3.52092
H         -4.50428       -3.10537       -4.54518
H         -5.87529       -3.70814       -3.61670
H         -6.14780       -2.69117       -5.02276
C         -5.50293        3.23783       -1.83587
C         -5.24030        3.96511       -0.50204
C         -4.82556        5.41559       -0.80830
C         -6.54308        3.95639        0.31897
H         -4.61531        3.24303       -2.46835
H         -5.80100        2.20357       -1.66488
H         -6.30465        3.72471       -2.39092
H         -4.67211        5.98428        0.10821
H         -3.89465        5.43764       -1.37488
H         -5.59036        5.92519       -1.39412
H         -7.35997        4.41107       -0.24119
H         -6.83236        2.93588        0.56936
H         -6.43020        4.51035        1.25002
C         -3.73835        3.66370        4.58557
C         -2.46477        3.74021        3.72296
C         -2.00041        5.20298        3.61090
C         -1.35951        2.92367        4.42299
H         -3.54616        4.01978        5.59752
H         -4.53962        4.27064        4.16594
H         -4.09560        2.63617        4.65120
H         -2.77021        5.82920        3.16139
H         -1.76566        5.61430        4.59245
H         -1.10701        5.27645        2.99253
H         -1.16532        3.31240        5.42236
H         -1.65004        1.87832        4.52641
H         -0.42389        2.96673        3.86730
C          5.38646       -3.30308       -2.41012
C          6.07335       -3.31121       -1.02975
C          6.33530       -4.77340       -0.62484
C          7.40946       -2.55500       -1.14610
H          6.01368       -3.78939       -3.15711
H          4.43666       -3.83676       -2.37891
H          5.19978       -2.28470       -2.75030
H          6.93447       -5.28528       -1.37771
H          6.86954       -4.83303        0.32262
H          5.39638       -5.31567       -0.51444
H          8.04408       -2.99946       -1.91260
H          7.23921       -1.51181       -1.41176
H          7.95867       -2.57492       -0.20549
C          4.47059       -1.18102        4.74391
C          5.44992       -1.89387        3.79026
C          6.78504       -1.12712        3.80001
C          5.66996       -3.32914        4.30238
H          4.86834       -1.15380        5.75820
H          4.29629       -0.15198        4.43046
H          3.51147       -1.69716        4.77960
H          7.53055       -1.62163        3.17840
H          6.64979       -0.11502        3.41899
H          7.18720       -1.05673        4.81052
H          6.03766       -3.32523        5.32834
H          4.73711       -3.89222        4.28009
H          6.39684       -3.86154        3.69010
C          1.95331        5.87038       -0.31592
C          1.32344        4.59114        0.26837
C          1.60091        4.56230        1.78287
C         -0.19317        4.64399        0.01972
H          1.53272        6.75805        0.15654
H          3.03046        5.88821       -0.15096
H          1.76427        5.94719       -1.38653
H          2.67132        4.49493        1.97605
H          1.22762        5.46444        2.26672
H          1.12299        3.70575        2.25538
H         -0.63641        5.52527        0.48269
H         -0.40620        4.68501       -1.04775
H         -0.68817        3.76711        0.43135
C          5.20070        0.97168       -3.27166
C          4.61167        2.34979       -2.90964
C          5.74355        3.21696       -2.32647
C          4.06544        3.00415       -4.19024
H          4.44501        0.32321       -3.71290
H          6.00899        1.07398       -3.99556
H          5.60770        0.47690       -2.38995
H          6.12044        2.78414       -1.39993
H          6.57577        3.29365       -3.02602
H          5.39926        4.22713       -2.10864
H          3.27538        2.39469       -4.62589
H          3.65284        3.99133       -3.98511
H          4.85178        3.11779       -4.93628
H         -0.88723       -2.67099       -4.78229
H          0.99828       -1.14408       -5.15692
H         -1.50639       -1.19394       -4.03782
H         -2.36403       -2.71416       -3.82014
H          2.02235       -1.39131       -3.73959
H          2.38628       -0.09620       -4.87624
