87
-129.18466883
P         -1.73724       -0.41079       -0.09880
P          1.61759        0.36402       -0.18695
C         -1.47313        0.91355       -1.30403
C          1.34652       -0.66515       -1.63345
C         -0.50318        0.86975       -2.30450
C         -0.29576        2.01335       -3.09961
C         -1.07465        3.13807       -2.89087
C         -2.03774        3.16076       -1.90655
C         -2.22642        2.04771       -1.11139
C          2.15173       -1.75839       -1.83933
C          1.95958       -2.56150       -2.94607
C          0.95761       -2.25917       -3.84399
C          0.13304       -1.16258       -3.65373
C          0.33088       -0.34226       -2.52515
Cl         1.24968        1.26864        2.85067
Cl        -1.38536       -0.61533        3.06893
H         -2.63256        4.04560       -1.74943
H         -2.96501        2.06672       -0.32700
H          2.93751       -1.98165       -1.13686
H          2.58905       -3.42155       -3.10562
H         -0.91306        4.00693       -3.50618
H          0.80327       -2.88364       -4.70754
C         -0.85832       -4.63240       -1.53252
C         -0.31592       -4.18811       -0.33446
C         -0.61892       -2.90078        0.09065
C         -1.42554       -2.08399       -0.66828
C         -1.98047       -2.54103       -1.84006
C         -1.69517       -3.82203       -2.27488
H         -0.62011       -5.62333       -1.87968
C          0.60779       -5.04605        0.45610
H         -0.24013       -2.54529        1.03341
H         -2.61496       -1.88769       -2.41754
H         -2.11451       -4.18197       -3.20004
C         -5.87756       -0.05133        1.76070
C         -5.62850       -1.02273        0.81148
C         -4.36799       -1.13663        0.25560
C         -3.36775       -0.27855        0.64985
C         -3.61495        0.69082        1.59440
C         -4.87271        0.81310        2.17232
H         -6.85910        0.04093        2.19357
H         -6.41521       -1.69208        0.50405
H         -4.15903       -1.89303       -0.48304
H         -2.81950        1.34883        1.90368
C         -5.13497        1.86986        3.18688
C          4.96857       -1.36652        2.36828
C          5.09544       -0.09484        1.84464
C          4.08446        0.43435        1.06478
C          2.95878       -0.31279        0.81022
C          2.82843       -1.57788        1.33505
C          3.83018       -2.12347        2.12754
H          5.75598       -1.78104        2.97442
H          5.98006        0.48666        2.04641
H          4.16478        1.42957        0.65934
H          1.94164       -2.15190        1.12723
C          3.68659       -3.49963        2.67571
C          2.41491        4.65623       -1.42970
C          3.16703        3.63185       -1.97089
C          2.93609        2.32577       -1.58007
C          1.95948        2.06003       -0.64938
C          1.21527        3.07788       -0.10048
C          1.43390        4.39580       -0.48263
H          2.58368        5.67247       -1.74284
H          3.92664        3.84808       -2.70409
H          3.50043        1.51054       -2.00528
H          0.45355        2.84950        0.62583
C          0.59632        5.49118        0.07631
Pd        -0.05065        0.12184        1.42269
C          0.74517        2.04177       -4.16485
C         -0.93865       -0.87324       -4.64646
H          1.47957        1.24740       -4.02798
H          0.29585        1.92055       -5.15119
H          1.28412        2.99019       -4.15586
H         -1.66114       -0.15507       -4.25708
H         -0.51686       -0.46264       -5.56466
H         -1.48461       -1.78152       -4.90552
H          1.64377       -4.87051        0.16238
H          0.52053       -4.83708        1.52332
H          0.38917       -6.10422        0.30645
H         -5.35920        2.82265        2.70525
H         -5.98078        1.60601        3.82326
H         -4.26754        2.01419        3.83270
H          4.36133       -3.66378        3.51695
H          2.66904       -3.67380        3.02877
H          3.91123       -4.24629        1.91270
H          0.29525        5.26994        1.10134
H          1.13928        6.43727        0.08694
H         -0.30834        5.62741       -0.51799
