72
-98.09369734
Fe         0.02674        2.78651        0.00568
P          1.91567       -0.05334        0.00637
P         -1.82793       -0.08823        0.04257
C          1.43075        1.55974        0.73819
C          0.38962        1.76381        1.73264
C          0.30960        3.18569        2.01429
C          1.31795        3.85945        1.21709
C          2.02248        2.85454        0.43955
C         -1.39251        1.54395       -0.67881
C         -1.97260        2.83346       -0.33607
C         -1.32694        3.85350       -1.14525
C         -0.34035        3.19467       -1.98162
C         -0.39739        1.76896       -1.71128
C          3.27915       -0.81069        1.02318
C          4.55235       -0.59021        0.17557
C          2.87059        0.21854       -1.56293
C          4.30609        0.36604       -1.02124
C         -3.08496       -0.85457       -1.07958
C         -4.35523       -0.08105       -0.69086
C         -2.97015        0.17939        1.48546
C         -4.36250        0.30965        0.81865
H         -0.26142        0.99235        2.14263
H         -0.38167        3.66239        2.71295
H          1.52306        4.93229        1.21486
H          2.83743        3.03923       -0.26297
H         -2.76823        3.00010        0.39312
H          0.19885        0.99631       -2.19357
Cl         1.61882       -3.09132       -0.23385
Cl        -1.55454       -3.02739        0.34855
Pd         0.06909       -1.48155        0.06334
H          3.05224       -1.88023        1.10602
C          3.37094       -0.21045        2.42313
H          2.51534        1.14813       -2.02359
C          2.75120       -0.94886       -2.54361
H          4.92413       -1.55553       -0.19758
H          5.35598       -0.19964        0.81561
H          4.48133        1.40447       -0.70343
H          5.03201        0.17614       -1.82623
H         -1.54539        4.92349       -1.12727
H          0.30729        3.68118       -2.71454
H          4.33277       -0.49153        2.87436
H          3.55359       -0.86811       -3.29013
H         -3.18486       -1.90963       -0.80132
C         -2.67964       -0.73073       -2.54233
H         -2.66654        1.11810        1.96422
C         -2.92497       -0.96265        2.49865
H         -5.25469       -0.65974       -0.95204
H         -4.40494        0.82792       -1.30792
H         -4.75557        1.32911        0.94675
H         -5.07002       -0.33575        1.35779
H         -2.56444        0.33253       -2.79081
H         -3.12267       -1.90398        1.96964
C          2.23497       -0.64805        3.33254
H          1.26897       -0.37997        2.90854
H          2.23227       -1.73115        3.46935
H          2.29884       -0.18979        4.32202
C          1.41137       -1.04845       -3.25339
H          1.37587       -1.89834       -3.93884
H          0.59497       -1.17660       -2.54408
H          1.20374       -0.15084       -3.83871
C         -3.66750       -1.39109       -3.49181
H         -3.77778       -2.45362       -3.26714
H         -4.65810       -0.94019       -3.41067
H         -3.35303       -1.30611       -4.53449
C         -1.62263       -1.06185        3.27463
H         -0.78138       -1.25538        2.61038
H         -1.41137       -0.13830        3.81670
H         -1.64468       -1.87241        4.00667
H          3.40084        0.88359        2.33754
H          2.96097       -1.87894       -1.99967
H         -1.68112       -1.16796       -2.67459
H         -3.76192       -0.84674        3.20149
