171
-217.84580610
P         -1.62852        0.42633       -0.38264
P          1.61803       -0.41971       -0.35225
C         -0.88446        1.38054       -1.70677
C          0.89750       -1.34368       -1.71229
C         -0.07284        0.76638       -2.65366
C          0.56975        1.56886       -3.61594
C          0.34455        2.93541       -3.61797
C         -0.48802        3.52057       -2.68754
C         -1.09332        2.73779       -1.72392
C          1.10204       -2.70141       -1.74810
C          0.51218       -3.46666       -2.73496
C         -0.30232       -2.86404       -3.67005
C         -0.52376       -1.49711       -3.64956
C          0.10471       -0.71194       -2.66405
Cl         1.51697        0.44351        2.81851
Cl        -1.55546       -0.42333        2.84257
C         -1.40885       -0.88420       -4.67814
C          1.47132        0.97391       -4.64059
H         -0.66147        4.58407       -2.70780
H         -1.73197        3.18672       -0.98006
H          1.72487       -3.16510       -0.99994
H          0.68375       -4.53007       -2.76981
H          0.83131        3.54328       -4.36194
H         -0.77806       -3.45829       -4.43196
C         -3.94509       -3.24995       -1.62397
C         -2.96461       -3.37123       -0.64628
C         -2.24342       -2.23427       -0.30990
C         -2.50297       -1.03566       -0.92574
C         -3.47528       -0.92953       -1.88883
C         -4.22006       -2.04370       -2.25811
H         -4.52817       -4.11105       -1.89066
H         -1.48468       -2.27877        0.45256
H         -3.65519        0.03355       -2.33560
C         -4.32951        2.91617        2.27762
C         -4.89500        1.93697        1.46803
C         -4.04784        1.20303        0.64966
C         -2.69851        1.45027        0.63552
C         -2.15683        2.42581        1.43451
C         -2.96261        3.17337        2.28258
H         -4.96697        3.48382        2.92759
H         -4.44270        0.41657        0.03033
H         -1.09183        2.58600        1.41888
C          4.34813       -2.98661        2.20241
C          2.98157       -3.23978        2.22423
C          2.16227       -2.46133        1.41648
C          2.69585       -1.46261        0.63997
C          4.04598       -1.21833        0.64131
C          4.90433       -1.98054        1.42084
H          4.98866       -3.58736        2.82027
H          1.09723       -2.61573        1.40163
H          4.43402       -0.41502        0.03982
C          3.90378        3.31772       -1.45998
C          2.90811        3.40169       -0.49377
C          2.19211        2.24864       -0.20326
C          2.47859        1.06912       -0.84375
C          3.46830        0.99981       -1.79247
C          4.20471        2.13209       -2.12043
H          4.47744        4.19341       -1.69778
H          1.41382        2.26345        0.53990
H          3.66733        0.05123       -2.26169
Pd        -0.02564       -0.04209        1.24212
C         -3.65690       -5.79983       -0.32058
C         -2.66231       -4.69201        0.07536
C         -2.75754       -4.47608        1.59854
C         -1.24192       -5.15142       -0.29495
H         -3.59540       -6.02134       -1.38587
H         -3.44254       -6.72223        0.21911
H         -4.68059       -5.50872       -0.08569
H         -2.57425       -5.40591        2.13663
H         -2.02884       -3.74472        1.94509
H         -3.74820       -4.11550        1.87440
H         -0.97637       -6.06894        0.22981
H         -1.16892       -5.34134       -1.36523
H         -0.50513       -4.39093       -0.04023
C         -6.69881       -2.20961       -2.54337
C         -5.36750       -1.95806       -3.27452
C         -5.17076       -3.01970       -4.37341
C         -5.43170       -0.57119       -3.94431
H         -6.84914       -1.47381       -1.75341
H         -7.54132       -2.14392       -3.23158
H         -6.71580       -3.19827       -2.08584
H         -4.21319       -2.88531       -4.87501
H         -5.19423       -4.02824       -3.96295
H         -5.95677       -2.95117       -5.12531
H         -6.23139       -0.53583       -4.68402
H         -5.62923        0.21108       -3.21175
H         -4.49805       -0.33800       -4.45512
C         -7.18006        2.53748        2.41803
C         -6.39601        1.61471        1.46574
C         -6.59812        0.15616        1.91805
C         -6.95264        1.79510        0.04078
H         -7.06858        3.58292        2.13094
H         -8.24383        2.30091        2.39660
H         -6.83812        2.42197        3.44635
H         -7.65678       -0.10110        1.94616
H         -6.10371       -0.54045        1.24174
H         -6.18550        0.00229        2.91488
H         -8.02240        1.58895        0.01067
H         -6.79502        2.81558       -0.30772
H         -6.46489        1.12233       -0.66364
C         -1.57654        5.26162        2.37090
C         -2.30928        4.20351        3.21470
C         -1.30032        3.48184        4.12929
C         -3.34979        4.91636        4.09898
H         -1.11629        6.01856        3.00572
H         -0.78961        4.80758        1.77185
H         -2.26778        5.76192        1.69298
H         -1.79715        2.70856        4.71462
H         -0.51148        3.00257        3.55083
H         -0.82908        4.18047        4.82017
H         -3.88092        4.20467        4.73074
H         -2.86782        5.64218        4.75388
H         -4.07878        5.45298        3.49203
C          2.98866       -5.69721        2.72033
C          2.41670       -4.33247        3.14299
C          0.87853       -4.40001        3.06722
C          2.81348       -4.02627        4.59918
H          2.72794       -5.91933        1.68559
H          4.07487       -5.71316        2.80254
H          2.59416       -6.49673        3.34720
H          0.42939       -3.44974        3.35583
H          0.54813       -4.64843        2.05983
H          0.49028       -5.16615        3.73809
H          2.40029       -4.76956        5.28075
H          3.89541       -4.02479        4.72487
H          2.44006       -3.04746        4.89975
C          6.94031       -1.80959       -0.03346
C          6.40653       -1.66502        1.40414
C          7.19968       -2.61683        2.31953
C          6.62317       -0.22015        1.89228
H          8.01051       -1.60767       -0.07463
H          6.77207       -2.81950       -0.40687
H          6.44501       -1.11569       -0.71156
H          6.87034       -2.53038        3.35481
H          7.08176       -3.65325        2.00375
H          8.26376       -2.38236        2.29186
H          6.22667       -0.09119        2.89914
H          7.68348        0.03109        1.91102
H          6.12231        0.49686        1.24259
C          3.65862        5.77804        0.02086
C          2.56897        4.70974        0.23552
C          2.44587        4.44783        1.75055
C          1.23430        5.24622       -0.30551
H          3.43502        6.67844        0.59297
H          4.63287        5.41143        0.34392
H          3.72778        6.06753       -1.02736
H          3.36264        4.00625        2.14041
H          2.26080        5.37523        2.29226
H          1.62525        3.76883        1.97645
H          0.94133        6.16206        0.20745
H          1.31208        5.46441       -1.37027
H          0.44016        4.51294       -0.17258
C          5.46412        0.71876       -3.82262
C          5.36913        2.08756       -3.12007
C          6.68504        2.33937       -2.36160
C          5.17441        3.17335       -4.19546
H          5.66056       -0.07868       -3.10639
H          4.54261        0.48524       -4.35476
H          6.27638        0.71286       -4.54934
H          6.68058        3.31637       -1.87939
H          6.83358        1.58613       -1.58791
H          7.53911        2.30280       -3.03762
H          4.22644        3.03865       -4.71487
H          5.17775        4.17162       -3.76002
H          5.97256        3.13403       -4.93658
H         -0.88324       -0.77079       -5.62720
H          1.82749       -0.01070       -4.33462
H         -1.76058        0.10016       -4.36631
H         -2.28676       -1.50627       -4.85474
H          2.34582        1.60491       -4.80147
H          0.95716        0.86576       -5.59651
