75
-122.80689462
P          1.77984       -0.59940        0.15934
C          3.08611       -1.32033       -0.85166
C          4.37358       -1.31784       -0.36460
C          5.39254       -1.88694       -1.10686
C          5.11250       -2.46459       -2.32901
C          3.81696       -2.48118       -2.80564
C          2.80057       -1.91229       -2.06070
H          1.78561       -1.92410       -2.42318
H          3.59695       -2.93493       -3.75800
H          5.90551       -2.90647       -2.91000
H          6.40187       -1.88181       -0.72937
H          4.57377       -0.88679        0.60385
C          1.75464       -1.54679        1.69281
C          1.40608       -0.94286        2.87899
C          1.47889       -1.65104        4.06386
C          1.89599       -2.96703        4.05249
C          2.23717       -3.57435        2.86031
C          2.16871       -2.85955        1.67802
H          2.44845       -3.31680        0.74243
H          2.56036       -4.60226        2.85023
H          1.94916       -3.52272        4.97443
H          1.20234       -1.17829        4.99186
H          1.05959        0.07667        2.86911
C          2.15442        1.11610        0.57145
C          3.33399        1.76240        0.28474
C          3.48794        3.11118        0.57314
C          2.42579        3.79764        1.16095
C          1.23330        3.16685        1.43764
C          1.09262        1.80202        1.14119
O         -0.11541        1.12439        1.37245
C         -1.28189        1.81577        1.01042
C         -1.44716        3.17533        1.31942
C         -2.60981        3.81656        0.95293
C         -3.61952        3.14708        0.26260
C         -3.42318        1.81546       -0.07745
C         -2.27314        1.16009        0.29659
P         -1.90338       -0.51814       -0.23761
C         -1.57880       -1.59626        1.16046
C         -1.19628       -2.89445        0.91148
C         -1.07267       -3.78577        1.96240
C         -1.34296       -3.37104        3.25155
C         -1.73089       -2.06816        3.49460
C         -1.85181       -1.17863        2.44297
H         -2.16243       -0.16072        2.61403
H         -1.93787       -1.74382        4.50109
H         -1.24422       -4.06420        4.07089
H         -0.76830       -4.80204        1.77370
H         -1.01430       -3.20832       -0.10468
C         -3.40896       -1.19336       -0.97894
C         -4.37618       -1.66102       -0.11699
C         -5.55972       -2.17551       -0.61535
C         -5.77094       -2.21615       -1.97876
C         -4.80364       -1.74119       -2.84099
C         -3.62509       -1.22810       -2.33623
H         -2.87389       -0.83635       -2.99913
H         -4.96843       -1.76586       -3.90573
H         -6.69215       -2.61633       -2.36985
H         -6.31430       -2.54328        0.06038
H         -4.20008       -1.62257        0.94642
Pd         0.10244        0.04418       -1.41156
Cl        -1.18507        0.29524       -3.23271
Cl         1.80553        0.97917       -2.56393
H         -4.16665        1.29371       -0.65483
C         -4.85167        3.86281       -0.16252
H         -5.10211        4.66356        0.53448
H         -5.70431        3.18398       -0.20786
H         -4.72009        4.30475       -1.15095
H         -2.73036        4.85798        1.19393
S         -0.13888        4.03210        2.15724
H          2.53054        4.84244        1.39431
C          4.77114        3.80260        0.27756
H          4.13346        1.22633       -0.19396
H          5.20989        3.43219       -0.64991
H          4.62409        4.87773        0.16745
H          5.49198        3.64125        1.08006
