87
-129.18491098
P         -1.53876       -0.30582       -0.38169
P          1.70201        0.39299        0.07289
C         -1.18863        0.92802       -1.63866
C          1.56878       -0.71511       -1.35046
C         -0.12522        0.73075       -2.51051
C          0.13866        1.70835       -3.49078
C         -0.67485        2.82714       -3.56376
C         -1.72709        3.00143       -2.68960
C         -1.98122        2.04604       -1.72562
C          2.31139       -1.86967       -1.27095
C          2.20816       -2.83985       -2.24824
C          1.33878       -2.65537       -3.30059
C          0.57100       -1.50795       -3.39827
C          0.69636       -0.50553       -2.41702
Cl         1.05475        0.21946        3.29025
Cl        -1.49603       -1.68975        2.51088
H         -2.34681        3.88060       -2.75576
H         -2.80526        2.16998       -1.04286
H          2.97141       -2.01840       -0.43193
H          2.79398       -3.74182       -2.17978
H         -0.47042        3.57192       -4.31412
H          1.24097       -3.41507       -4.05751
C         -2.25347       -4.33707       -2.34421
C         -1.34577       -4.24472       -1.29797
C         -1.15216       -3.00743       -0.69603
C         -1.84992       -1.90434       -1.12916
C         -2.75352       -2.00451       -2.16074
C         -2.95876       -3.22851       -2.77020
H         -2.40135       -5.28824       -2.82657
C         -0.55573       -5.42746       -0.86116
H         -0.44439       -2.90858        0.10964
H         -3.28049       -1.12354       -2.49254
H         -3.66102       -3.31410       -3.58314
C         -5.09026        1.03162        2.14031
C         -5.17250       -0.13640        1.40808
C         -4.10024       -0.54439        0.63747
C         -2.95789        0.21971        0.60037
C         -2.87262        1.38137        1.33246
C         -3.93671        1.80345        2.11906
H         -5.92511        1.35168        2.74016
H         -6.07002       -0.73211        1.44004
H         -4.14624       -1.45981        0.07080
H         -1.97266        1.97061        1.29262
C         -3.83947        3.06934        2.89554
C          5.65380       -0.25061        2.23832
C          5.48876        0.84205        1.41022
C          4.28643        1.03618        0.75625
C          3.25912        0.13961        0.93698
C          3.42259       -0.95116        1.75953
C          4.62610       -1.16572        2.42010
H          6.58592       -0.39879        2.75650
H          6.29423        1.54549        1.27666
H          4.14128        1.88721        0.11084
H          2.60394       -1.63595        1.90768
C          4.78310       -2.32519        3.33967
C          0.88866        4.80383       -0.64658
C          1.74565        4.12552       -1.49137
C          2.01259        2.78658       -1.27426
C          1.41672        2.14020       -0.21755
C          0.59263        2.82221        0.64809
C          0.30875        4.16639        0.44167
H          0.66557        5.84194       -0.82487
H          2.19544        4.63502       -2.32768
H          2.66514        2.23646       -1.93329
H          0.19433        2.31447        1.51000
C         -0.62949        4.88948        1.34215
Pd        -0.02858       -0.39430        1.41553
C          1.27299        1.56737       -4.44532
C         -0.37655       -1.36707       -4.53904
H          1.96397        0.78362       -4.13287
H          0.91175        1.31983       -5.44423
H          1.84006        2.49677       -4.51516
H          0.15388       -1.10819       -5.45614
H         -0.91398       -2.30010       -4.71436
H         -1.12047       -0.59292       -4.34829
H          0.38240       -5.49104       -1.41437
H         -0.31612       -5.36800        0.20152
H         -1.10834       -6.35358       -1.02525
H         -4.59490        3.11170        3.68127
H         -2.86184        3.15972        3.37129
H         -3.98032        3.93435        2.24594
H          5.83264       -2.59856        3.45696
H          4.38273       -2.09090        4.32699
H          4.25252       -3.19998        2.96085
H         -1.64929        4.83875        0.95789
H         -0.62494        4.45707        2.34373
H         -0.35528        5.94130        1.43406
