111
-148.55753769
P         -2.57785        2.00399        0.98879
P          0.12680        0.44816        0.46608
C         -1.47555        1.62384        2.37852
C         -0.27411        0.99389        2.13604
C         -3.43270        3.62980        1.21995
C         -2.83167        4.70710        0.34385
C         -1.83043        1.95190        3.67153
H         -2.78018        2.42445        3.86060
C         -0.97276        1.65648        4.71727
H         -1.24904        1.91287        5.72701
C          0.23476        1.03202        4.46961
H          0.90109        0.80029        5.28415
C          0.58328        0.69489        3.17411
H          1.51354        0.19058        2.96378
Pd        -1.33970        1.58476       -0.91640
Cl        -3.01094        2.53037       -2.07567
Cl        -0.03205        1.09705       -2.67408
C         -4.90179        3.28777        0.91000
C         -4.04025        0.87618        0.86664
H         -3.33796        5.66486        0.48481
H         -1.77021        4.84849        0.56080
H         -2.91716        4.44305       -0.71082
H         -5.09142        3.48252       -0.15462
H         -5.57740        3.96119        1.45913
H         -4.10229        0.57263       -0.18711
C         -5.22007        1.79827        1.22748
C         -3.88217       -0.33136        1.76484
H         -3.32032        3.89219        2.27947
H         -5.43771        1.69091        2.29903
H         -6.13348        1.47247        0.70702
H         -3.00548       -0.91905        1.48481
H         -3.75337       -0.02660        2.80507
H         -4.75662       -0.98427        1.71474
C         -1.14001       -3.89011       -0.11086
C         -0.98259       -3.37551        1.20372
C         -0.58723       -2.05627        1.34773
C         -0.42388       -1.24362        0.25701
C         -0.68656       -1.70420       -1.00510
C         -1.09509       -3.00786       -1.22300
O         -1.25578       -5.28853       -0.31899
C         -1.22363       -4.19590        2.48184
H         -0.38852       -1.65048        2.32445
H         -0.55357       -1.02560       -1.83025
C         -1.49121       -3.40254       -2.65520
C          4.54865        0.65302       -0.58902
C          3.98048       -0.56248       -0.12373
C          2.62875       -0.57803        0.17490
C          1.87174        0.56204        0.10053
C          2.44159        1.76451       -0.22426
C          3.78906        1.85282       -0.53598
O          5.83855        0.65214       -1.17925
C          4.77033       -1.86734        0.07350
H          2.14386       -1.49780        0.45608
H          1.81423        2.63959       -0.24856
C          4.37478        3.24975       -0.80278
C         -2.07267       -3.36935        3.47334
C         -1.99743       -5.49667        2.20586
C          0.12863       -4.52965        3.13355
C         -0.22754       -3.50671       -3.52501
C         -2.26234       -4.73273       -2.70318
C         -2.42183       -2.31798       -3.24368
C          0.00066       -5.92207       -0.49470
H         -2.30724       -3.95306        4.36311
H         -1.55362       -2.47106        3.80338
H         -3.01320       -3.06667        3.01427
H         -1.41495       -6.17941        1.59186
H         -2.24024       -6.01384        3.13385
H         -2.92802       -5.28583        1.68008
H         -0.01174       -5.09406        4.05504
H          0.75016       -5.12470        2.46710
H          0.67852       -3.62094        3.37691
H          0.31541       -2.56211       -3.53723
H          0.44767       -4.27274       -3.14855
H         -0.48289       -3.76006       -4.55356
H         -2.61526       -4.94614       -3.71185
H         -1.63437       -5.56400       -2.39157
H         -3.12615       -4.70003       -2.04011
H         -2.78288       -2.60889       -4.22969
H         -3.28764       -2.16381       -2.60031
H         -1.91188       -1.36255       -3.35491
H         -0.15471       -6.98721       -0.66744
H          0.52119       -5.49085       -1.34822
H          0.61491       -5.78755        0.39416
C          5.80212        0.40708       -2.57542
C          4.38929       -2.86631       -1.03216
C          6.29160       -1.63891        0.06143
C          4.41619       -2.47848        1.44789
C          3.88781        3.75348       -2.17164
C          3.89590        4.22567        0.29478
C          5.91305        3.25751       -0.76865
H          4.91823       -3.81026       -0.90334
H          3.32005       -3.07618       -1.01632
H          4.63551       -2.47550       -2.01754
H          6.82871       -2.55723        0.29762
H          6.63221       -1.30075       -0.91424
H          6.57225       -0.88252        0.79353
H          3.37180       -2.78187        1.50030
H          5.02044       -3.36327        1.64671
H          4.59919       -1.76011        2.24650
H          2.79951        3.79018       -2.20846
H          4.26504        4.75534       -2.37497
H          4.22370        3.09945       -2.97387
H          4.35891        5.20459        0.17295
H          2.81754        4.37185        0.26488
H          4.15836        3.85052        1.28358
H          6.30309        4.27072       -0.86261
H          6.32872        2.66891       -1.58297
H          6.27876        2.83741        0.16764
H          6.81776        0.42850       -2.97110
H          5.35918       -0.56772       -2.77256
H          5.20520        1.16943       -3.07315
