111
-148.56133228
P         -2.63893        2.14025        0.50414
P          0.02998        0.44584        0.43355
C         -1.67228        1.92659        2.02319
C         -0.49381        1.21339        1.98025
C         -3.46886        3.79240        0.43181
C         -2.78792        4.70317       -0.56648
C         -2.11233        2.45821        3.21864
H         -3.04663        2.99394        3.25275
C         -1.35987        2.28599        4.36761
H         -1.70176        2.70240        5.30109
C         -0.17351        1.57954        4.31997
H          0.41224        1.44515        5.21442
C          0.25825        1.03700        3.12311
H          1.17817        0.47614        3.07219
Pd        -1.22128        1.50975       -1.19684
Cl        -2.78353        2.11693       -2.68686
Cl         0.26098        0.83409       -2.73906
C         -4.92316        3.42654        0.07862
C         -4.11006        1.02240        0.42408
H         -2.81070        4.26738       -1.56649
H         -3.28070        5.67678       -0.62004
H         -1.73980        4.86647       -0.30440
H         -5.04309        3.47622       -1.01249
H         -5.61779        4.17656        0.48660
H         -4.10268        0.58231       -0.58179
C         -5.29241        1.99822        0.57295
C         -4.04136       -0.05462        1.48600
H         -3.41579        4.21839        1.44146
H         -5.58426        2.04132        1.63132
H         -6.17496        1.61390        0.03920
H         -3.15104       -0.67626        1.36581
H         -3.99668        0.38816        2.48274
H         -4.91722       -0.70662        1.45137
C         -1.12465       -3.96410        0.33261
C         -0.36230       -3.44941        1.41424
C         -0.03331       -2.10379        1.40201
C         -0.48965       -1.27005        0.41478
C         -1.32495       -1.74021       -0.56479
C         -1.70172       -3.07129       -0.60865
O         -1.23720       -5.36573        0.14480
C          0.12146       -4.29580        2.60351
H          0.60809       -1.69355        2.16340
H         -1.66868       -1.06129       -1.32464
C         -2.72514       -3.49080       -1.67714
C          4.51679        0.64549       -0.31965
C          3.76797       -0.48530       -0.73333
C          2.40356       -0.48657       -0.49987
C          1.79741        0.53958        0.17556
C          2.53015        1.59058        0.66119
C          3.90075        1.65262        0.46761
O          5.87141        0.78597       -0.72260
C          4.39744       -1.68778       -1.45341
H          1.78584       -1.29303       -0.85638
H          2.01225        2.36756        1.19601
C          4.69300        2.81169        1.09314
C         -0.17034       -3.54318        3.92085
C         -0.60183       -5.65088        2.69144
C          1.63676       -4.52822        2.48108
C         -3.89212       -2.47813       -1.69653
C         -2.04792       -3.50027       -3.05760
C         -3.33480       -4.87385       -1.39052
C         -0.19108       -5.89840       -0.65081
H         -1.22856       -3.29396        3.99455
H          0.09196       -4.15475        4.78379
H          0.39922       -2.61832        3.99461
H         -0.31577       -6.19122        3.59354
H         -1.68194       -5.50958        2.70728
H         -0.36071       -6.28262        1.83989
H          2.01150       -5.10629        3.32535
H          1.87955       -5.07076        1.56942
H          2.17549       -3.58139        2.45723
H         -4.67140       -2.79677       -2.38824
H         -4.33865       -2.38669       -0.70694
H         -3.56490       -1.48926       -2.01295
H         -1.64140       -2.51841       -3.29833
H         -1.22834       -4.21536       -3.08972
H         -2.75907       -3.76933       -3.83809
H         -3.76105       -4.90542       -0.38841
H         -4.12386       -5.11094       -2.10375
H         -2.58404       -5.65758       -1.45822
H         -0.32548       -6.97598       -0.74695
H         -0.20509       -5.44453       -1.64020
H          0.77276       -5.69558       -0.18684
C          6.03860        1.46845       -1.95892
C          5.84671       -1.91788       -0.98897
C          3.61275       -2.98331       -1.13895
C          4.35702       -1.44574       -2.96987
C          6.12127        2.37162        1.46323
C          4.74042        3.98724        0.10564
C          4.01873        3.29068        2.39923
H          6.48420       -1.07535       -1.24476
H          5.88654       -2.05067        0.09167
H          6.27147       -2.80609       -1.45603
H          4.12984       -3.85546       -1.53834
H          3.50667       -3.12097       -0.06322
H          2.61819       -2.97216       -1.58252
H          4.91839       -0.55508       -3.24179
H          4.78112       -2.29033       -3.51222
H          3.33098       -1.30601       -3.30955
H          6.69282        2.09539        0.58070
H          6.66049        3.17360        1.96678
H          6.09669        1.50931        2.12868
H          3.73384        4.32538       -0.13925
H          5.28676        4.83023        0.52794
H          5.22829        3.70219       -0.82332
H          3.85453        2.45542        3.07963
H          3.06011        3.76999        2.20660
H          4.64383        4.02159        2.91171
H          6.54506        0.81720       -2.67105
H          5.06989        1.76568       -2.36274
H          6.65687        2.35310       -1.80742
