111
-148.55414264
P         -1.65665        2.77721       -0.07565
P         -0.47235       -0.08379        0.52747
C         -1.66837        2.13451        1.62367
C         -1.21815        0.85505        1.87194
C         -0.48616        4.20224       -0.21548
C          0.65789        3.86309       -1.14772
C         -2.09477        2.92571        2.67136
H         -2.40711        3.93908        2.47982
C         -2.09459        2.42167        3.96064
H         -2.43155        3.03816        4.77798
C         -1.65725        1.13335        4.20263
H         -1.65184        0.74373        5.20728
C         -1.20669        0.35024        3.15504
H         -0.82746       -0.64461        3.32889
Pd        -1.27659        0.91586       -1.39520
Cl        -2.44014        1.83684       -3.06969
Cl        -0.69756       -0.98544       -2.45335
C         -1.38137        5.35794       -0.70707
C         -3.24071        3.61526       -0.54349
H          1.34429        4.70548       -1.26122
H          1.23102        3.00801       -0.78334
H          0.28227        3.60387       -2.13973
H         -1.24821        5.46778       -1.79200
H         -1.04724        6.31234       -0.27301
H         -3.40437        3.37673       -1.60224
C         -2.88503        5.10563       -0.39853
C         -4.41897        3.14829        0.28433
H         -0.12350        4.39842        0.80180
H         -3.11251        5.42864        0.62653
H         -3.52849        5.71739       -1.04934
H         -5.34475        3.63430       -0.03178
H         -4.55753        2.06804        0.19941
H         -4.27527        3.37704        1.34052
C         -0.88529       -4.61085        0.72226
C          0.36416       -4.00616        1.01364
C          0.45516       -2.62593        0.94718
C         -0.64587       -1.85667        0.67532
C         -1.87734       -2.42894        0.49557
C         -2.03945       -3.80399        0.55079
O         -0.97137       -6.01992        0.56548
C          1.62102       -4.82277        1.35299
H          1.39965       -2.12961        1.08754
H         -2.71255       -1.78173        0.28833
C         -3.44703       -4.39567        0.37760
C          3.79238        1.38987       -0.08318
C          3.26829        0.37412       -0.92648
C          1.96699       -0.04587       -0.71214
C          1.23369        0.42939        0.34181
C          1.77723        1.31830        1.23170
C          3.06973        1.78899        1.07269
O          4.98544        2.06619       -0.44600
C          4.05448       -0.29312       -2.06650
H          1.48982       -0.72488       -1.39811
H          1.16929        1.66452        2.04957
C          3.63403        2.71777        2.16041
C          2.57291       -4.00974        2.25991
C          1.25668       -6.10646        2.12058
C          2.36570       -5.17339        0.05587
C         -4.51748       -3.42547        0.92732
C         -3.71754       -4.62735       -1.11694
C         -3.59805       -5.71453        1.15730
C         -0.76055       -6.46823       -0.76770
H          3.39973       -4.62932        2.60646
H          3.00878       -3.16315        1.73132
H          2.04622       -3.63391        3.13673
H          0.69230       -5.86771        3.02138
H          0.64900       -6.77290        1.51356
H          2.15146       -6.65394        2.41575
H          2.64592       -4.26901       -0.48301
H          3.27458       -5.73626        0.26697
H          1.74582       -5.77278       -0.60608
H         -4.59162       -2.52205        0.32397
H         -5.50176       -3.89324        0.92347
H         -4.28833       -3.13631        1.95266
H         -2.99905       -5.32205       -1.54499
H         -4.71575       -5.03466       -1.27512
H         -3.64212       -3.69193       -1.67095
H         -4.61558       -6.09788        1.08543
H         -2.93056       -6.48200        0.77407
H         -3.36519       -5.56578        2.21115
H          0.07552       -7.16702       -0.79017
H         -1.64840       -6.99019       -1.12400
H         -0.54747       -5.62305       -1.42355
C          4.74706        3.18694       -1.28181
C          3.88106       -1.82537       -1.97344
C          3.50751        0.19489       -3.41840
C          5.56321       -0.00437       -1.98609
C          3.33171        2.11985        3.55233
C          5.16113        2.87611        2.06112
C          2.96469        4.09782        2.05111
H          4.19620       -2.18798       -0.99540
H          2.84563       -2.12500       -2.12648
H          4.48099       -2.33154       -2.72923
H          4.03078       -0.28381       -4.24562
H          2.44669       -0.03402       -3.51556
H          3.62550        1.27152       -3.52506
H          5.95546       -0.27959       -1.00768
H          6.11140       -0.56508       -2.74283
H          5.77125        1.05122       -2.14378
H          3.72894        1.10820        3.63034
H          3.78527        2.72098        4.33998
H          2.26223        2.07821        3.75203
H          5.44626        3.38661        1.14439
H          5.55105        3.45727        2.89645
H          5.64946        1.90227        2.06660
H          3.14994        4.54984        1.07860
H          3.34378        4.77621        2.81492
H          1.88606        4.01765        2.18088
H          4.16942        3.93789       -0.74547
H          5.70104        3.61767       -1.58654
H          4.18964        2.88242       -2.16622
