111
-148.55541279
P         -1.72566        2.74557        0.57865
P         -0.53393       -0.17251        0.42190
C         -1.68810        1.70588        2.06705
C         -1.23226        0.40746        1.97936
C         -0.52815        4.14406        0.75223
C          0.57974        4.02755       -0.27343
C         -2.07672        2.21480        3.28990
H         -2.39110        3.24290        3.36267
C         -2.03436        1.41120        4.41623
H         -2.34191        1.80742        5.37020
C         -1.59213        0.10549        4.32126
H         -1.55382       -0.51785        5.19942
C         -1.17916       -0.39505        3.09968
H         -0.79720       -1.40006        3.01328
Pd        -1.42309        1.25832       -1.16213
Cl        -2.72372        2.46732       -2.52599
Cl        -0.90107       -0.28099       -2.72014
C         -1.41126        5.39815        0.59078
C         -3.30304        3.69580        0.38382
H          0.16882        4.02135       -1.28514
H          1.27939        4.86373       -0.20329
H          1.14671        3.10297       -0.14657
H         -1.30766        5.77024       -0.43767
H         -1.04315        6.21105        1.23466
H         -3.49974        3.72789       -0.69562
C         -2.91041        5.09917        0.87902
C         -4.46858        3.05666        1.10786
H         -0.13140        4.07802        1.77366
H         -3.10018        5.16240        1.95921
H         -3.55910        5.86166        0.42116
H         -4.63405        2.03341        0.76309
H         -4.29122        3.01453        2.18267
H         -5.39125        3.62001        0.95119
C         -0.65703       -4.66872       -0.26434
C          0.39791       -4.09330        0.49300
C          0.40030       -2.71977        0.67203
C         -0.62761       -1.94317        0.20455
C         -1.71215       -2.50853       -0.41223
C         -1.77720       -3.87526       -0.63000
O         -0.55267       -6.00682       -0.72362
C          1.54084       -4.90060        1.13135
H          1.22465       -2.23442        1.16771
H         -2.50422       -1.86160       -0.75005
C         -3.05938       -4.44045       -1.26392
C          3.78864        1.23693        0.14044
C          3.06666        1.42077        1.34996
C          1.76675        0.94835        1.41476
C          1.16443        0.38591        0.32020
C          1.81266        0.32559       -0.88438
C          3.11163        0.78175       -1.02227
O          5.19352        1.43106        0.11327
C          3.63554        2.13120        2.58944
H          1.20766        1.01595        2.33188
H          1.27353       -0.06476       -1.73051
C          3.71868        0.79903       -2.43469
C          1.73998       -4.43895        2.59224
C          1.24087       -6.40898        1.17462
C          2.84008       -4.65543        0.34559
C         -3.09946       -4.06163       -2.75394
C         -3.16266       -5.96855       -1.11719
C         -4.29244       -3.83630       -0.55622
C          0.09768       -6.10672       -1.97982
H          2.49350       -5.04688        3.09237
H          2.07014       -3.40301        2.64874
H          0.81007       -4.52759        3.15329
H          1.18665       -6.82969        0.17345
H          2.01713       -6.94855        1.71672
H          0.28785       -6.59712        1.66780
H          3.09449       -3.59590        0.33357
H          3.67379       -5.19556        0.79350
H          2.74373       -4.98448       -0.68723
H         -4.01409       -4.42255       -3.22348
H         -3.05991       -2.98033       -2.88196
H         -2.25534       -4.48874       -3.29160
H         -4.12061       -6.33477       -1.48566
H         -2.38036       -6.47285       -1.67930
H         -3.06513       -6.26170       -0.07249
H         -5.21320       -4.27937       -0.93486
H         -4.24780       -4.01963        0.51695
H         -4.36298       -2.76124       -0.71232
H          1.10699       -5.70443       -1.91183
H          0.14625       -7.15439       -2.27741
H         -0.45285       -5.54387       -2.73167
C          5.91408        0.25188        0.42999
C          4.92307        2.91327        2.27727
C          2.60392        3.15419        3.11457
C          3.91923        1.09162        3.68604
C          4.03101       -0.64126       -2.87270
C          2.70258        1.42023       -3.41955
C          4.99791        1.64997       -2.51173
H          5.73217        2.24362        1.99531
H          4.76086        3.60683        1.45290
H          5.25522        3.48531        3.14330
H          1.68765        2.67214        3.45124
H          3.00626        3.71192        3.95982
H          2.34307        3.86958        2.33547
H          4.30490        1.56996        4.58597
H          3.01175        0.55194        3.95533
H          4.65399        0.36078        3.35309
H          4.43985       -0.66121       -3.88255
H          4.75661       -1.10550       -2.20729
H          3.13068       -1.25492       -2.86280
H          2.39915        2.41167       -3.08437
H          3.13628        1.51963       -4.41414
H          1.80642        0.80995       -3.51724
H          5.35815        1.72613       -3.53737
H          5.79613        1.21641       -1.91386
H          4.81202        2.65722       -2.14049
H          5.67477       -0.53517       -0.28354
H          6.98309        0.46202        0.39035
H          5.65078       -0.08911        1.43013
