111
-148.55229522
P         -2.38304        2.36222       -0.19900
P         -0.01469        0.36418        0.49383
C         -1.77276        2.24611        1.50107
C         -0.78192        1.33850        1.80536
C         -2.46889        4.11208       -0.78749
C         -1.64917        4.27973       -2.04838
C         -2.31662        3.03303        2.49593
H         -3.07407        3.75798        2.24637
C         -1.88386        2.88841        3.80271
H         -2.30983        3.50057        4.58081
C         -0.91434        1.95384        4.11152
H         -0.58437        1.83326        5.13024
C         -0.36278        1.17557        3.10967
H          0.39057        0.43710        3.33627
Pd        -1.19721        0.83147       -1.45700
Cl        -2.63754        1.18354       -3.13955
Cl        -0.00984       -0.78101       -2.47939
C         -3.98116        4.34713       -0.98718
C         -4.15983        1.86467       -0.38324
H         -1.68427        5.30795       -2.41663
H         -0.60213        4.01524       -1.88044
H         -2.02852        3.63173       -2.84089
H         -4.13643        5.03736       -1.82910
H         -4.40059        4.85613       -0.10700
H         -4.16248        0.91944       -0.94333
C         -4.74783        3.01539       -1.22460
C         -4.83941        1.68539        0.95812
H         -2.06984        4.74091        0.02003
H         -5.81613        3.13435       -0.99167
H         -4.70298        2.75599       -2.29261
H         -5.85963        1.31137        0.84426
H         -4.29015        0.98761        1.59354
H         -4.89882        2.63589        1.49024
C         -1.16102       -4.02863        0.75368
C          0.21219       -3.67284        0.75224
C          0.54109       -2.32991        0.68295
C         -0.43014       -1.36421        0.68463
C         -1.75577       -1.69637        0.78747
C         -2.15411       -3.02130        0.86262
O         -1.54137       -5.38942        0.60854
C          1.34010       -4.71630        0.76851
H          1.56748       -2.01940        0.60281
H         -2.48045       -0.89980        0.78631
C         -3.64917       -3.34315        1.01088
C          4.48834        1.07227        0.14308
C          3.81613        0.25168       -0.79694
C          2.44654        0.10102       -0.67067
C          1.75625        0.65417        0.37560
C          2.42029        1.37015        1.33841
C          3.78963        1.56697        1.27338
O          5.84809        1.42697       -0.06403
C          4.53822       -0.45011       -1.95806
H          1.88551       -0.44077       -1.41033
H          1.84954        1.79049        2.14582
C          4.49252        2.32591        2.41066
C          2.60861       -4.14060        1.43901
C          0.93273       -5.96171        1.57636
C          1.68655       -5.10972       -0.67572
C         -4.37391       -2.22066        1.78717
C         -4.28391       -3.45674       -0.38374
C         -3.86217       -4.64548        1.80348
C         -1.72637       -5.79885       -0.74089
H          3.36484       -4.91517        1.56453
H          3.05907       -3.34983        0.84126
H          2.37689       -3.73658        2.42411
H          0.08841       -6.47247        1.12031
H          1.75455       -6.67465        1.63818
H          0.64692       -5.68446        2.59046
H          2.50577       -5.82785       -0.69971
H          0.83302       -5.55731       -1.17854
H          1.98607       -4.23485       -1.25180
H         -4.42449       -1.30268        1.20478
H         -5.39931       -2.50841        2.01819
H         -3.86563       -2.00643        2.72700
H         -4.16188       -2.52668       -0.93869
H         -3.82125       -4.25016       -0.96524
H         -5.35011       -3.66970       -0.31149
H         -3.37899       -4.58437        2.77805
H         -4.92281       -4.83874        1.96209
H         -3.44710       -5.50250        1.27930
H         -2.75019       -6.14472       -0.88181
H         -1.52471       -4.96970       -1.42044
H         -1.05500       -6.62701       -0.96709
C          6.02841        2.61120       -0.83065
C          5.98126       -0.82265       -1.57248
C          3.82035       -1.76815       -2.32876
C          4.53671        0.47107       -3.18720
C          4.52206        3.82581        2.08065
C          3.73919        2.13123        3.74661
C          5.92414        1.80103        2.62383
H          6.47008       -1.37710       -2.37318
H          6.58040        0.06190       -1.37225
H          5.99070       -1.44202       -0.67618
H          4.39424       -2.32685       -3.06763
H          3.70007       -2.40149       -1.45082
H          2.83678       -1.58717       -2.75933
H          5.03597       -0.00343       -4.03156
H          3.51661        0.70861       -3.48823
H          5.04658        1.40853       -2.97825
H          5.00460        4.39134        2.87740
H          5.06484        4.01610        1.15802
H          3.51092        4.21279        1.95639
H          4.30476        2.55728        4.57501
H          2.76770        2.62331        3.73782
H          3.58695        1.07257        3.95534
H          6.39994        2.29322        3.47168
H          6.54603        1.97827        1.74990
H          5.91497        0.72856        2.81546
H          6.58430        2.37919       -1.73887
H          5.06288        3.04367       -1.09594
H          6.60527        3.33450       -0.25448
