45
-71.81693632
C          2.33458        0.96203        2.51903
P          1.54047        0.77255        0.88824
P         -1.05782        0.28935       -0.86071
C         -0.50079       -0.03693       -2.56744
Cl         1.35172       -2.13412        2.13479
H          3.04306        1.78509        2.49685
H         -1.00140        0.63580       -3.25788
Cl        -1.17946       -2.76148       -0.00792
C          0.49369        2.17382        0.44111
C         -0.62490        1.95875       -0.33464
C         -1.42070        3.01828       -0.71800
C         -1.08946        4.30285       -0.32404
C          0.03615        4.52022        0.44699
C          0.83192        3.45415        0.82850
H         -2.29539        2.83221       -1.32060
H         -1.70920        5.13299       -0.62060
H          0.29665        5.52090        0.75031
H          1.71807        3.61377        1.42102
Pd         0.15947       -1.05928        0.56938
H         -0.72711       -1.06367       -2.84069
H          2.86298        0.04941        2.77941
H          0.57186        0.11745       -2.64119
C         -5.47828       -0.49797       -0.13333
C         -4.97345       -0.60799       -1.41400
C         -3.63161       -0.36874       -1.65017
C         -2.80628       -0.02066       -0.60512
C         -3.30440        0.09081        0.67304
C         -4.64611       -0.14890        0.91175
H         -6.52321       -0.68700        0.05118
H         -5.62298       -0.88264       -2.22886
H         -3.22621       -0.45553       -2.64505
H         -2.64017        0.36280        1.47872
H         -5.03870       -0.06581        1.91185
C          4.47266       -0.16768       -2.45104
C          3.73931        1.00238       -2.49299
C          2.85667        1.29939       -1.47032
C          2.72100        0.42770       -0.41467
C          3.43926       -0.74488       -0.37316
C          4.32319       -1.04402       -1.39374
H          5.15989       -0.39995       -3.24815
H          3.85216        1.68205       -3.32159
H          2.26993        2.20351       -1.49202
H          3.27830       -1.42998        0.44430
H          4.88689       -1.96200       -1.36671
H          1.58060        1.16035        3.27540
