111
-148.55087875
P         -1.68503        2.71792        0.42262
P         -0.41457       -0.17193        0.60122
C         -1.33208        1.98453        2.05021
C         -0.84720        0.69456        2.12137
C         -0.58979        4.16176        0.07819
C          0.20228        3.93194       -1.19131
C         -1.49971        2.71501        3.20949
H         -1.82201        3.74084        3.15061
C         -1.21614        2.13996        4.43625
H         -1.35201        2.71030        5.34066
C         -0.75070        0.84081        4.50344
H         -0.52402        0.39578        5.45829
C         -0.55339        0.11943        3.33985
H         -0.15215       -0.88157        3.36931
Pd        -1.58642        0.93163       -1.04481
Cl        -2.61541        2.24945       -2.54176
Cl        -1.39737       -0.87594       -2.36395
C         -1.58293        5.34037       -0.00156
C         -3.35625        3.49819        0.22560
H         -0.46864        3.79029       -2.04096
H          0.85218        4.78041       -1.41855
H          0.82733        3.03908       -1.11544
H         -1.21037        6.08502       -0.72017
H         -1.62498        5.85969        0.96727
H         -3.90075        2.86810       -0.49102
C         -3.01290        4.86943       -0.39391
C         -4.12946        3.58845        1.52397
H          0.07972        4.26232        0.94286
H         -3.76431        5.61114       -0.08580
H         -3.08628        4.81073       -1.48995
H         -4.20512        2.61351        2.01059
H         -3.64288        4.27365        2.21863
H         -5.14247        3.96305        1.35969
C         -0.57893       -4.71097        0.91695
C         -1.74662       -3.98695        0.55619
C         -1.67286       -2.60403        0.50996
C         -0.48529       -1.95343        0.71911
C          0.67156       -2.65454        0.94103
C          0.66880       -4.03831        1.00393
O         -0.67208       -6.08327        1.26437
C         -3.08058       -4.65194        0.17638
H         -2.54947       -2.01526        0.29748
H          1.58958       -2.10401        1.06103
C          2.02328       -4.75616        1.13030
C          3.57655        1.41668       -0.90840
C          2.87892        0.43190       -1.65355
C          1.66926       -0.02625       -1.16103
C          1.19468        0.39449        0.05241
C          1.90836        1.27624        0.82068
C          3.12362        1.77800        0.38658
O          4.70491        2.06947       -1.47263
C          3.37925       -0.10490       -3.00289
H          1.04857       -0.68602       -1.74235
H          1.49203        1.58395        1.76339
C          3.91285        2.72611        1.30303
C         -4.09590       -4.45108        1.31291
C         -3.62738       -4.00108       -1.11403
C         -2.92238       -6.15512       -0.11153
C          2.57388       -4.56267        2.55250
C          1.92074       -6.25956        0.81963
C          3.01828       -4.15332        0.11364
C         -0.93116       -6.28290        2.64373
H         -3.75120       -4.91611        2.23458
H         -4.25187       -3.39147        1.51299
H         -5.05974       -4.88972        1.05586
H         -4.52770       -4.51100       -1.45569
H         -3.88572       -2.95453       -0.96262
H         -2.88796       -4.05166       -1.91274
H         -2.15671       -6.32263       -0.86822
H         -2.63083       -6.69904        0.78394
H         -3.85623       -6.58719       -0.47035
H          3.54602       -5.04260        2.66232
H          2.69392       -3.50460        2.78326
H          1.90263       -4.99072        3.29479
H          1.46683       -6.41965       -0.15774
H          2.90420       -6.72898        0.81948
H          1.31081       -6.77384        1.55861
H          3.96595       -4.69093        0.13144
H          2.61615       -4.21484       -0.89713
H          3.23476       -3.10800        0.32752
H         -0.98393       -7.35235        2.84865
H         -0.13535       -5.84031        3.24092
H         -1.87638       -5.81679        2.91732
C          4.38765        3.23737       -2.22006
C          4.91730       -0.11974       -3.06194
C          2.90883       -1.56206       -3.21572
C          2.80920        0.76391       -4.13450
C          5.42911        2.54798        1.10534
C          3.50758        4.17844        1.00942
C          3.61266        2.42549        2.78934
H          5.32795        0.88442       -2.99638
H          5.32675       -0.70192       -2.23703
H          5.26931       -0.55920       -3.99491
H          3.36148       -1.98800       -4.11079
H          3.19095       -2.18633       -2.36874
H          1.82930       -1.62454       -3.34344
H          3.12705        1.79908       -4.03600
H          3.13712        0.40155       -5.10838
H          1.71954        0.74989       -4.11821
H          5.71860        1.51104        1.27250
H          5.73230        2.82043        0.09744
H          5.99097        3.17327        1.79872
H          4.05572        4.87273        1.64577
H          3.70668        4.44340       -0.02585
H          2.44365        4.32529        1.19040
H          3.77116        1.37049        3.01140
H          2.58776        2.68231        3.05365
H          4.26535        3.00626        3.44072
H          4.70649        3.10931       -3.25426
H          3.31429        3.42825       -2.19226
H          4.92061        4.09238       -1.80438
