58
-89.86545223
P          1.70323        0.31276        0.73795
C          2.93449        1.53581        0.28550
C          4.23890        1.15313        0.07216
C          5.18211        2.09878       -0.28761
C          4.80951        3.42077       -0.43223
C          3.49854        3.79920       -0.21851
C          2.55727        2.85131        0.14209
H          1.52789        3.12988        0.30518
H          4.51195        0.11597        0.18198
C          2.34633       -1.35224        0.51083
C          2.43600       -1.84778       -0.76987
C          2.88846       -3.13555       -0.98619
C          3.25419       -3.92172        0.08782
C          3.17502       -3.41950        1.37171
C          2.72205       -2.12979        1.58329
H          2.66472       -1.72997        2.58228
H          2.14829       -1.21751       -1.59535
C          1.25287        0.62837        2.49198
C          0.15761       -0.27790        3.03657
C         -1.24584        0.16347        2.66142
P         -1.70161       -0.00032        0.88572
C         -1.91026       -1.73290        0.44284
C         -3.12705       -2.23311        0.03816
C         -3.24245       -3.56586       -0.31316
C         -2.13524       -4.38993       -0.26556
C         -0.91245       -3.88197        0.12440
C         -0.80365       -2.54959        0.47661
H          0.15417       -2.13142        0.73165
H         -3.97943       -1.57778       -0.02151
C         -3.22494        0.94259        0.70115
C         -3.24546        2.10958       -0.02844
C         -4.41596        2.83899       -0.13204
C         -5.55871        2.40099        0.50696
C         -5.53126        1.24023        1.25395
C         -4.35845        0.51329        1.35532
H         -4.31976       -0.38385        1.95307
H         -2.34703        2.44410       -0.52134
Pd        -0.09130        0.51783       -0.71369
Cl         1.42996        0.79404       -2.35140
Cl        -1.80042        0.56645       -2.17525
H         -1.99852       -0.40616        3.21207
H         -1.39529        1.21286        2.92352
H          0.32541       -1.30962        2.70543
H          0.23541       -0.31716        4.13438
H          2.18219        0.51722        3.05617
H          0.96320        1.67750        2.57494
H          6.20419        1.80286       -0.45802
H          3.20707        4.82995       -0.33612
H          2.95294       -3.52327       -1.98952
H          3.46554       -4.03194        2.20950
H         -4.19475       -3.95856       -0.62978
H         -0.04102       -4.51554        0.14306
H         -4.43494        3.74688       -0.71227
H         -6.42046        0.90180        1.76003
H          5.54275        4.15824       -0.71545
H          3.60578       -4.92729       -0.07631
H         -2.22354       -5.42768       -0.54302
H         -6.47191        2.96774        0.42573
