111
-148.55586010
P         -2.57220        2.04288        0.77410
P          0.17366        0.43461        0.46210
C         -1.46738        1.83787        2.19758
C         -0.26648        1.17615        2.04948
C         -3.42335        3.68522        0.76753
C         -2.84776        4.59361       -0.29698
C         -1.83541        2.32732        3.43434
H         -2.78443        2.82500        3.54942
C         -0.99318        2.16104        4.52025
H         -1.27997        2.54379        5.48611
C          0.21124        1.50149        4.36867
H          0.86542        1.36861        5.21458
C          0.57272        1.00249        3.13025
H          1.50105        0.46850        2.99950
Pd        -1.29115        1.43155       -1.03025
Cl        -2.96534        1.98594       -2.41437
Cl         0.10458        0.76587       -2.66648
C         -4.90106        3.30485        0.55477
C         -4.03353        0.90949        0.80554
H         -2.95939        4.14861       -1.28700
H         -3.35330        5.56204       -0.31191
H         -1.78146        4.76906       -0.13526
H         -5.12673        3.35789       -0.51927
H         -5.56080        4.04544        1.03195
H         -4.11144        0.48631       -0.20503
C         -5.20618        1.87072        1.07478
C         -3.86417       -0.18652        1.83522
H         -3.27868        4.11848        1.76526
H         -5.39377        1.90533        2.15686
H         -6.13238        1.47917        0.62712
H         -2.99406       -0.80696        1.61137
H         -3.71797        0.23628        2.83089
H         -4.74098       -0.83693        1.87509
C         -1.27110       -3.88549        0.32623
C         -1.07240       -3.25164        1.57981
C         -0.60359       -1.94854        1.59036
C         -0.40252       -1.26161        0.42222
C         -0.69194       -1.83647       -0.78658
C         -1.16728       -3.13237       -0.87081
O         -1.53948       -5.27909        0.27116
C         -1.33737       -3.96583        2.91445
H         -0.38896       -1.44807        2.51790
H         -0.53669       -1.24801       -1.67360
C         -1.54706       -3.69417       -2.24951
C          4.57249        0.76884       -0.67051
C          3.82323       -0.37250       -1.05295
C          2.48895       -0.43069       -0.68904
C          1.91541        0.55373        0.07173
C          2.65872        1.61295        0.52314
C          4.00375        1.72565        0.20950
O          5.87496        0.97297       -1.19878
C          4.41425       -1.51597       -1.89195
H          1.86760       -1.24569       -1.01601
H          2.16822        2.35962        1.12331
C          4.81513        2.88734        0.80493
C         -2.51637       -4.94769        2.78843
C         -0.06935       -4.71434        3.35160
C         -1.71311       -2.94959        4.01712
C         -2.07488       -2.56644       -3.16706
C         -0.30513       -4.31844       -2.90342
C         -2.67126       -4.73932       -2.13419
C         -0.37580       -6.08745        0.15025
H         -2.74681       -5.40885        3.74847
H         -3.40922       -4.43180        2.43662
H         -2.29330       -5.74631        2.08507
H         -0.22277       -5.21843        4.30546
H          0.21800       -5.46410        2.61855
H          0.76588       -4.02356        3.46484
H         -2.01680       -3.46366        4.92877
H         -0.87305       -2.30751        4.27785
H         -2.54233       -2.31886        3.69846
H         -1.28893       -1.86301       -3.43744
H         -2.46941       -2.97625       -4.09641
H         -2.87600       -2.01213       -2.67878
H          0.47657       -3.57088       -3.03560
H          0.10302       -5.11915       -2.29104
H         -0.54531       -4.73116       -3.88287
H         -3.53990       -4.31388       -1.63271
H         -2.98444       -5.08840       -3.11781
H         -2.35006       -5.60742       -1.56433
H          0.52214       -5.46873        0.17702
H         -0.34645       -6.80729        0.96815
H         -0.40786       -6.64009       -0.78843
C          5.89641        1.71866       -2.40956
C          5.91091       -1.71215       -1.59087
C          3.71018       -2.85339       -1.56538
C          4.20758       -1.20559       -3.38236
C          6.28794        2.48854        1.01090
C          4.72169        4.10462       -0.12721
C          4.25996        3.28327        2.19238
H          6.49055       -0.83617       -1.87075
H          6.06803       -1.89067       -0.52767
H          6.31304       -2.56256       -2.14097
H          4.20935       -3.68487       -2.06244
H          3.72362       -3.04735       -0.49319
H          2.67455       -2.85717       -1.90131
H          4.70552       -0.28116       -3.66495
H          4.60257       -2.00618       -4.00717
H          3.14738       -1.09194       -3.60782
H          6.77698        2.27229        0.06442
H          6.84689        3.28915        1.49472
H          6.36068        1.59865        1.63523
H          3.68443        4.41330       -0.25492
H          5.27835        4.94967        0.27712
H          5.12281        3.87863       -1.11227
H          4.19558        2.41395        2.84636
H          3.27012        3.73108        2.11893
H          4.90724        4.01638        2.67319
H          6.34643        1.11929       -3.20078
H          4.88362        2.00171       -2.69928
H          6.50105        2.61559       -2.27629
