105
-153.06127816
Cl         0.46189        3.57663        1.65337
Pd        -0.15841        1.93110        0.24828
P         -0.73066        0.24155       -1.31891
N          0.12429       -1.17523       -1.95674
C          0.20562       -2.50168       -1.54441
C         -0.13264       -2.96997       -0.24553
C          0.17669       -4.30111        0.11064
C          0.00398       -4.73431        1.54876
C          0.79997       -5.99605        1.91245
C          0.56979       -7.09311        0.86913
C          1.01598       -6.62703       -0.52640
C          0.68967       -5.18614       -0.84012
C          0.94291       -4.72407       -2.12460
C          0.72533       -3.41376       -2.46252
H          0.96864       -3.06818       -3.45241
H          1.34563       -5.40722       -2.85338
H          2.09909       -6.76466       -0.62933
H          1.08725       -8.01907        1.15725
H          1.86888       -5.75183        1.95349
H          0.29352       -3.90456        2.20615
C         -0.71827       -2.09035        0.80157
C          0.11224       -1.10985        1.40534
C         -0.34109       -0.43340        2.53855
C         -1.59057       -0.68567        3.04251
C         -2.44224       -1.60777        2.44087
C         -3.80143       -1.82670        3.06438
C         -4.75257       -2.73196        2.26028
C         -3.99408       -3.86908        1.56807
C         -2.92420       -3.29608        0.62907
C         -2.00766       -2.31531        1.31619
H         -2.34338       -4.10056        0.16375
H         -4.68348       -4.53035        1.02425
H         -5.27151       -2.13377        1.50172
H         -4.26769       -0.84751        3.23240
H         -1.93369       -0.15260        3.91295
H          0.28998        0.30871        2.99208
N          1.27117       -0.74210        0.72716
P          1.81213        0.87706        0.97922
C          2.90033        1.39070       -0.34209
C          3.11007        2.73351       -0.54687
C          3.86543        3.15153       -1.62710
C          4.40026        2.22594       -2.51375
C          4.18023        0.87383       -2.28459
C          3.42515        0.45713       -1.20323
H          3.23217       -0.59011       -1.03532
H          4.59691        0.14954       -2.96347
C          5.21882        2.67328       -3.67437
H          4.03194        4.20169       -1.79548
H          2.64596        3.44441        0.11887
C          2.63286        0.93333        2.57261
C          3.38100       -0.15874        2.94289
C          4.02903       -0.16579        4.16578
C          3.92439        0.91896        5.02628
C          3.16918        2.01483        4.63018
C          2.52364        2.01782        3.40874
H          1.92465        2.85824        3.10321
H          3.08921        2.86541        5.28536
C          4.64072        0.92153        6.33191
H          4.61982       -1.01661        4.45925
H          3.44492       -1.00373        2.27496
H          1.12051       -0.84410       -0.27581
H          0.34372       -0.98089       -2.92591
C         -0.60250        1.40870       -2.68269
C         -1.70377        1.84442       -3.37952
C         -1.54781        2.74923       -4.41326
C         -0.28848        3.22633       -4.75224
C          0.81239        2.76455       -4.04415
C          0.65284        1.85971       -3.01091
H          1.50424        1.51235       -2.44947
H          1.79514        3.12068       -4.30162
C         -0.11819        4.18661       -5.87748
H         -2.40714        3.09481       -4.96210
H         -2.68212        1.48524       -3.10652
C         -2.46341       -0.18625       -1.16262
C         -2.99670       -1.02733       -2.11004
C         -4.34193       -1.34939       -2.06688
C         -5.15852       -0.83294       -1.07051
C         -4.60085        0.01605       -0.12343
C         -3.25765        0.33908       -0.17138
H         -2.82859        1.00498        0.55909
H         -5.22506        0.42665        0.65161
C         -6.60216       -1.19501       -1.02317
H         -4.76484       -2.00954       -2.80472
H         -2.35521       -1.43046       -2.87793
Cl        -1.91209        3.14145       -0.46209
H          0.56674       -7.26362       -1.29939
H          0.53823       -6.35077        2.91942
H         -0.49713       -7.34877        0.84448
H         -1.05869       -4.90840        1.74777
H         -3.51356       -4.49980        2.32625
H         -3.41248       -2.78302       -0.20534
H         -3.65235       -2.25201        4.06414
H         -5.54635       -3.13330        2.90591
H          4.92000        3.66835       -4.00707
H          6.27679        2.70965       -3.41127
H          5.10493        1.99433       -4.52067
H          4.69289       -0.08328        6.75353
H          5.66036        1.29059        6.21335
H          4.13448        1.55876        7.05836
H          0.01348        3.65731       -6.82216
H         -0.98833        4.83741       -5.97402
H          0.75448        4.82281       -5.72324
H         -6.72843       -2.27314       -0.91353
H         -7.10684       -0.71321       -0.18467
H         -7.10947       -0.88766       -1.93868
