87
-129.18370613
P         -1.72690       -0.25963        0.05045
P          1.50854        0.43850       -0.10839
C         -1.50962        1.08126       -1.14575
C          1.22326       -0.53986       -1.58969
C         -0.60095        1.04148       -2.20185
C         -0.42847        2.19357       -2.99381
C         -1.18099        3.32318       -2.72407
C         -2.08328        3.34232       -1.68381
C         -2.23741        2.22020       -0.89406
C          2.01277       -1.63708       -1.83234
C          1.80892       -2.40080       -2.96444
C          0.80830       -2.05763       -3.84902
C         -0.00151       -0.95705       -3.62178
C          0.21368       -0.17276       -2.47067
Cl         1.38486        1.23477        2.98804
Cl        -1.34078       -0.60278        3.26147
H         -2.65787        4.23099       -1.47994
H         -2.92938        2.23538       -0.06825
H          2.79476       -1.89551       -1.13803
H          2.42621       -3.26392       -3.15252
H         -1.04656        4.19875       -3.33646
H          0.64134       -2.65439       -4.72966
C         -0.93551       -4.47527       -1.45150
C         -0.38597       -4.06182       -0.24566
C         -0.66204       -2.77521        0.19950
C         -1.44768       -1.92880       -0.54884
C         -2.01227       -2.35609       -1.72723
C         -1.75422       -3.63591       -2.18173
H         -0.71790       -5.46547       -1.81394
C          0.51655       -4.95298        0.53246
H         -0.28438       -2.44482        1.15181
H         -2.63286       -1.68054       -2.29415
H         -2.17994       -3.97214       -3.11288
C         -5.83212        0.01667        2.00461
C         -4.83022        0.88104        2.39856
C         -3.58089        0.80158        1.81316
C         -3.34034       -0.14269        0.84210
C         -4.33787       -1.00508        0.44855
C         -5.60315       -0.93414        1.01993
H         -6.80383        0.07093        2.46529
H         -5.01858        1.61243        3.16735
H         -2.78520        1.45871        2.12684
H         -4.13319       -1.74598       -0.30530
C         -6.67245       -1.88719        0.61567
C          4.98596       -1.36764        2.21900
C          5.10190       -0.09742        1.68946
C          4.05078        0.45311        0.98081
C          2.89544       -0.27074        0.80325
C          2.77743       -1.53522        1.33213
C          3.81954       -2.10189        2.05459
H          5.80441       -1.79908        2.76966
H          6.00949        0.46618        1.83097
H          4.12385        1.44671        0.56989
H          1.86979       -2.09322        1.18006
C          3.68891       -3.47731        2.60776
C          2.40766        4.74075       -1.25120
C          1.56107        4.48113       -0.19143
C          1.29337        3.17528        0.17242
C          1.86976        2.14325       -0.52963
C          2.72053        2.39668       -1.58027
C          2.99713        3.70475       -1.96247
H          2.62133        5.75740       -1.53417
H          1.11171        5.29468        0.35403
H          0.64756        2.95614        1.00696
H          3.16401        1.57218       -2.11427
C          3.92666        3.98812       -3.08962
Pd        -0.06161        0.21075        1.61397
C          0.54941        2.23052       -4.11717
C         -1.08331       -0.63561       -4.59351
H          1.10666        3.16827       -4.11536
H          1.27426        1.41915       -4.04490
H          0.04126        2.14565       -5.07841
H         -1.65989       -1.52782       -4.84192
H         -1.77769        0.10229       -4.19023
H         -0.66784       -0.23724       -5.51996
H          0.44148       -4.75074        1.60190
H          0.26621       -6.00298        0.37506
H          1.55550       -4.80541        0.23393
H         -6.65447       -2.77805        1.24500
H         -7.65989       -1.43185        0.70400
H         -6.54559       -2.20451       -0.42043
H          4.39186       -3.64381        3.42511
H          2.68368       -3.64722        2.99637
H          3.88381       -4.22509        1.83772
H          4.92984        4.20365       -2.71926
H          3.99490        3.13697       -3.76877
H          3.58902        4.84832       -3.66959
