64
-97.21470567
Cl        -1.62140       -1.20527       -2.55343
Cl         1.54133       -1.27202       -2.96910
P          1.93845       -0.68137        0.27027
C          2.11638       -2.35446        1.04308
C          3.72654       -0.30340       -0.06071
P         -1.27591       -0.12485        0.44610
C          1.28732        0.56194        1.44051
C         -0.13354        0.83269        1.51197
C         -0.31563        1.97800        2.39205
C          0.98526        2.38266        2.89422
C          1.97913        1.51698        2.28925
H         -1.27434        2.40125        2.69861
H          1.18104        3.19742        3.59408
Pd         0.17161       -0.91605       -1.23509
H          3.05819        1.56723        2.44316
C         -5.04075        2.11642       -0.84020
C         -4.04647        2.79613       -0.16587
C         -2.90211        2.12877        0.22907
C         -2.74802        0.79020       -0.05400
C         -3.74277        0.11097       -0.72024
C         -4.89110        0.77247       -1.11724
H         -5.93348        2.63472       -1.15030
H         -4.16077        3.84538        0.05214
H         -2.12310        2.65412        0.75181
H         -3.61397       -0.93747       -0.93557
H         -5.66483        0.23900       -1.64457
C         -2.59416       -3.95207        2.50530
C         -2.37099       -2.81085        3.25137
C         -1.97736       -1.64265        2.62307
C         -1.80803       -1.62890        1.25805
C         -2.03642       -2.75998        0.50938
C         -2.42975       -3.92881        1.13394
H         -2.90051       -4.86243        2.99432
H         -2.50166       -2.82950        4.32089
H         -1.79397       -0.74295        3.18900
H         -1.91601       -2.71567       -0.56129
H         -2.60907       -4.81736        0.55118
C          4.07459       -0.39526       -1.53037
H          3.91433        0.71047        0.31628
C          4.45755       -1.35897        0.79223
H          4.65586       -0.95738        1.79684
C          3.62113       -2.66080        0.91335
H          5.44447       -1.57024        0.35512
C          1.62944       -2.32510        2.47555
H          1.51424       -3.05073        0.44330
H          3.95190       -3.25570        1.77687
H          3.80094       -3.29307        0.03173
H          2.20644       -1.60721        3.06192
H          0.58145       -2.02602        2.53291
H          1.72802       -3.30238        2.95402
H          5.13828       -0.21601       -1.70153
H          3.84091       -1.38896       -1.91599
H          3.51505        0.32625       -2.12738
Fe         0.84064        2.47952        0.79937
C          2.22536        3.17616       -0.45572
C          1.40388        4.26431        0.05252
C          0.02252        4.01230       -0.32306
C         -0.00744        2.72133       -0.99041
C          1.35126        2.23090       -1.12472
H          3.31383        3.10641       -0.38622
H          1.77159        5.15197        0.57307
H         -0.83440        4.65650       -0.11455
H         -0.88848        2.25134       -1.43350
H          1.64961        1.33088       -1.66554
