111
-148.55201315
P         -2.70008        1.87230       -0.22649
P          0.13745        0.58550        0.32528
C         -1.85253        2.18794        1.34949
C         -0.59618        1.66417        1.56553
C         -3.76900        3.30884       -0.69892
C         -3.44548        3.80697       -2.09005
C         -2.45992        2.93929        2.33576
H         -3.44941        3.33352        2.17263
C         -1.80174        3.16886        3.53182
H         -2.27598        3.75567        4.30149
C         -0.54059        2.64487        3.74217
H         -0.03012        2.82087        4.67470
C          0.06275        1.88470        2.75648
H          1.03917        1.45193        2.90927
Pd        -1.06199        1.00551       -1.61066
Cl        -2.53613        1.02923       -3.29687
Cl         0.65932        0.14205       -2.76912
C         -5.19590        2.73874       -0.55366
C         -3.96742        0.52779       -0.12525
H         -3.64559        3.03212       -2.83116
H         -4.04949        4.67787       -2.35550
H         -2.39250        4.08440       -2.17873
H         -5.85957        3.22091       -1.28621
H         -5.60521        3.00079        0.43311
H         -3.61092       -0.29459       -0.76101
C         -5.22236        1.19335       -0.72637
C         -4.14260        0.05544        1.30137
H         -3.58033        4.10101        0.03786
H         -6.12329        0.76624       -0.26211
H         -5.29559        0.94976       -1.79661
H         -4.47209        0.87614        1.94126
H         -4.88657       -0.74162        1.37262
H         -3.20314       -0.32239        1.70949
C         -1.36981       -3.65890        0.99303
C         -0.81581       -3.28866       -0.26091
C         -0.36873       -1.98913       -0.41663
C         -0.38978       -1.10013        0.62462
C         -0.79671       -1.49164        1.87288
C         -1.25233       -2.77929        2.10286
O         -2.11591       -4.85950        1.11191
C         -0.68357       -4.23761       -1.46274
H         -0.01232       -1.64267       -1.37175
H         -0.76958       -0.77114        2.67220
C         -1.58934       -3.17657        3.54992
C          4.67133        0.89563        0.05802
C          3.86837        2.01200       -0.29067
C          2.49285        1.89776       -0.16614
C          1.91661        0.71412        0.21334
C          2.68193       -0.39901        0.44416
C          4.06162       -0.35376        0.33756
O          6.08109        1.03703        0.15851
C          4.47029        3.33559       -0.78821
H          1.84751        2.73583       -0.36675
H          2.18137       -1.31408        0.70879
C          4.86851       -1.64664        0.53479
C         -0.90261       -5.71004       -1.07543
C         -1.70020       -3.83250       -2.54352
C          0.74377       -4.12948       -2.04344
C         -2.89005       -2.48124        3.98499
C         -1.73993       -4.69841        3.71881
C         -0.44146       -2.73010        4.48199
C         -3.49250       -4.67591        0.82560
H         -0.23751       -5.99619       -0.26141
H         -1.92472       -5.88337       -0.74724
H         -0.71100       -6.37118       -1.92026
H         -2.71999       -3.90470       -2.17002
H         -1.53743       -2.80477       -2.86691
H         -1.61600       -4.47632       -3.41850
H          0.88591       -4.83746       -2.85943
H          0.94697       -3.13521       -2.43756
H          1.48695       -4.34663       -1.27689
H         -3.14852       -2.74610        5.00991
H         -2.78846       -1.39761        3.93614
H         -3.72241       -2.76737        3.34474
H         -1.88072       -4.96572        4.76585
H         -2.59780       -5.07325        3.16555
H         -0.85400       -5.21535        3.35169
H          0.50741       -3.15232        4.15212
H         -0.33758       -1.64659        4.50579
H         -0.61996       -3.06180        5.50453
H         -4.01071       -5.63008        0.92322
H         -3.92624       -3.95776        1.51968
H         -3.61607       -4.30060       -0.18918
C          6.53508        1.41029        1.45329
C          3.48822        4.05707       -1.73904
C          4.75368        4.25046        0.41255
C          5.76467        3.08953       -1.58494
C          6.15248       -1.63345       -0.31447
C          5.21808       -1.80696        2.02181
C          4.04455       -2.87515        0.08462
H          3.96066        4.92566       -2.19722
H          3.16428        3.39134       -2.53868
H          2.60549        4.41487       -1.21128
H          5.16924        5.20390        0.08737
H          3.83789        4.45264        0.96755
H          5.46190        3.79208        1.09857
H          6.54021        2.65661       -0.95795
H          5.58133        2.40343       -2.41117
H          6.15499        4.02005       -1.99631
H          5.91470       -1.47480       -1.36580
H          6.82676       -0.83994       -0.00205
H          6.69063       -2.57690       -0.22650
H          4.31332       -1.84766        2.62797
H          5.78142       -2.72375        2.19385
H          5.81740       -0.97234        2.37782
H          4.65579       -3.77723        0.09724
H          3.67047       -2.73840       -0.92969
H          3.19549       -3.05584        0.74224
H          5.69030        1.53393        2.13209
H          7.20433        0.64291        1.84179
H          7.09068        2.34576        1.38958
