171
-217.83455547
P         -1.51247        0.21283       -0.18700
P          1.68993       -0.69696        0.19449
C         -0.71005        0.73241       -1.72212
C          0.82621       -1.92135       -0.82051
C          0.00497       -0.21605       -2.44276
C          0.66461        0.16820       -3.62581
C          0.54981        1.47718       -4.06400
C         -0.16780        2.40618       -3.34057
C         -0.78908        2.03063       -2.16595
C          0.87279       -3.20643       -0.33339
C          0.18427       -4.21986       -0.97203
C         -0.56861       -3.93097       -2.08985
C         -0.64516       -2.64082       -2.58638
C          0.07734       -1.61402       -1.95045
Cl         1.18595       -0.41521        3.42020
Cl        -1.91489       -1.02044        2.90333
C         -1.51472       -2.37157       -3.76468
C          1.46735       -0.81577       -4.40396
H         -0.23550        3.42464       -3.68652
H         -1.31497        2.76452       -1.58149
H          1.44379       -3.41141        0.56023
H          0.22626       -5.22692       -0.59048
H          1.03398        1.76824       -4.98063
H         -1.11870       -4.71269       -2.58605
C         -4.62615       -2.90271       -1.24031
C         -3.75824       -3.16459       -0.18798
C         -2.81981       -2.19414        0.13509
C         -2.75144       -1.02330       -0.57643
C         -3.60641       -0.78773       -1.62499
C         -4.56748       -1.72768       -1.97922
H         -5.37852       -3.63055       -1.48180
H         -2.14088       -2.34077        0.95490
H         -3.50572        0.13008       -2.17722
C         -3.71816        3.76937        1.62901
C         -3.86583        3.48639        0.27755
C         -3.19962        2.37927       -0.23386
C         -2.38246        1.61432        0.56377
C         -2.26930        1.90595        1.90259
C         -2.93916        2.98165        2.46612
H         -4.23059        4.62199        2.03315
H         -3.31564        2.10801       -1.26809
H         -1.67929        1.27280        2.53742
C          5.74998       -2.44061        1.20226
C          5.27928       -2.51112       -0.10344
C          4.01668       -1.99423       -0.36786
C          3.27361       -1.42090        0.63495
C          3.75698       -1.35797        1.91591
C          5.00648       -1.87167        2.22989
H          6.72251       -2.84223        1.41634
H          3.59875       -2.03654       -1.35946
H          3.14396       -0.91390        2.67878
C          2.75999        3.42676       -1.36457
C          1.75039        3.33209       -0.41456
C          1.40795        2.06695        0.04898
C          2.03794        0.94910       -0.44848
C          3.03333        1.06606       -1.38700
C          3.42062        2.31103       -1.86297
H          3.04790        4.40277       -1.70688
H          0.64502        1.94746        0.79659
H          3.53482        0.17862       -1.73212
Pd        -0.14813       -0.49957        1.61849
C         -2.78199       -4.58532        1.68339
C         -3.86686       -4.48159        0.59258
C         -3.69545       -5.66588       -0.37620
C         -5.24794       -4.55602        1.26793
H         -1.78367       -4.53273        1.24971
H         -2.88267       -3.78409        2.41517
H         -2.86025       -5.53135        2.21867
H         -3.75547       -6.61573        0.15479
H         -4.46673       -5.66502       -1.14539
H         -2.72702       -5.61873       -0.87292
H         -5.35054       -5.47361        1.84694
H         -5.39075       -3.71247        1.94306
H         -6.05007       -4.53434        0.53110
C         -6.96805       -1.24590       -2.47646
C         -5.58103       -1.46974       -3.10386
C         -5.63484       -2.67861       -4.05815
C         -5.20392       -0.22379       -3.92992
H         -7.28692       -2.12017       -1.90962
H         -6.94945       -0.39492       -1.79565
H         -7.71751       -1.04987       -3.24306
H         -5.95603       -3.58267       -3.54301
H         -6.33639       -2.49809       -4.87251
H         -4.65671       -2.87061       -4.49731
H         -4.20556       -0.32410       -4.35552
H         -5.90316       -0.07917       -4.75336
H         -5.22978        0.67747       -3.31846
C         -4.80024        3.88481       -2.05680
C         -4.71580        4.40721       -0.60895
C         -4.07669        5.80776       -0.63161
C         -6.14455        4.49285       -0.04100
H         -3.81296        3.83440       -2.51578
H         -5.24878        2.89220       -2.08812
H         -5.41421        4.54377       -2.67057
H         -4.64666        6.48728       -1.26495
H         -4.03404        6.23858        0.36815
H         -3.05851        5.75928       -1.01777
H         -6.77668        5.12000       -0.66946
H         -6.59701        3.50271        0.01132
H         -6.14966        4.91693        0.96225
C         -1.36103        3.42088        4.37705
C         -2.83530        3.21926        3.98027
C         -3.40071        1.99032        4.71732
C         -3.63132        4.46353        4.41736
H         -0.75338        2.55874        4.10467
H         -0.94544        4.29847        3.88352
H         -1.26505        3.56674        5.45275
H         -2.83329        1.09125        4.47965
H         -3.36473        2.13127        5.79728
H         -4.43788        1.81463        4.43298
H         -3.26043        5.36009        3.92085
H         -4.69073        4.35275        4.18691
H         -3.54297        4.62087        5.49226
C          6.42478       -4.60972       -0.85708
C          6.14984       -3.13524       -1.20317
C          7.48016       -2.36520       -1.29836
C          5.45598       -3.07564       -2.57886
H          7.02793       -5.08612       -1.62979
H          6.95972       -4.70131        0.08751
H          5.49073       -5.16416       -0.76770
H          7.30078       -1.31298       -1.51822
H          8.03918       -2.42135       -0.36513
H          8.11057       -2.77217       -2.08880
H          5.24883       -2.04571       -2.86941
H          6.08835       -3.51477       -3.35032
H          4.51664       -3.62827       -2.56956
C          5.58481       -0.30938        4.10225
C          5.51007       -1.78786        3.67771
C          6.90927       -2.41368        3.83311
C          4.53180       -2.54117        4.59857
H          6.25331        0.24646        3.44510
H          4.60459        0.16410        4.06000
H          5.95684       -0.21443        5.12218
H          7.24959       -2.34758        4.86646
H          6.90053       -3.46763        3.55580
H          7.64109       -1.89775        3.21178
H          3.53615       -2.10051        4.56387
H          4.44594       -3.58491        4.29722
H          4.87139       -2.51481        5.63376
C          0.53176        5.44574       -1.04238
C          1.09869        4.61473        0.12442
C          2.15972        5.43633        0.87843
C         -0.05404        4.30097        1.09269
H          1.31393        5.74122       -1.74020
H         -0.21404        4.87700       -1.59573
H          0.05393        6.35410       -0.67569
H          2.97912        5.72192        0.21969
H          1.72753        6.34821        1.29016
H          2.57845        4.85883        1.70245
H         -0.83127        3.72469        0.59457
H          0.30162        3.73409        1.95203
H         -0.51149        5.21766        1.46458
C          4.31958        1.54078       -4.08132
C          4.59967        2.40886       -2.84175
C          5.87269        1.90266       -2.13815
C          4.83436        3.85824       -3.30805
H          5.14086        1.60366       -4.79503
H          4.19524        0.49292       -3.81187
H          3.41200        1.87233       -4.58379
H          6.08409        2.49748       -1.24981
H          5.76298        0.86468       -1.82552
H          6.73630        1.96346       -2.80012
H          5.08940        4.50525       -2.46902
H          5.65721        3.90637       -4.02122
H          3.94733        4.25935       -3.79825
H         -1.09822       -2.81764       -4.66890
H          2.19977       -0.31738       -5.04016
H         -1.63774       -1.30199       -3.93884
H         -2.50755       -2.79508       -3.60998
H          0.82756       -1.41955       -5.04821
H          2.01031       -1.48988       -3.73939
