45
-71.81331855
C          2.40957        0.88716        2.49612
P          1.57644        0.72642        0.88201
P         -1.02862        0.27214       -0.87204
C         -0.41911       -0.02018       -2.56714
Cl         1.56620       -2.23981        1.88960
H          3.11728        1.71080        2.47132
H         -0.58478       -1.05594       -2.84947
Cl        -1.50802       -2.58242        0.48311
C          0.51822        2.13239        0.47724
C         -0.59753        1.93161       -0.30683
C         -1.39461        2.99832       -0.66744
C         -1.06949        4.27393       -0.24083
C          0.05224        4.47628        0.53969
C          0.85072        3.40397        0.89692
H         -2.26627        2.82488       -1.27811
H         -1.69103        5.10895       -0.51939
H          0.30824        5.47011        0.86831
H          1.73536        3.55234        1.49461
Pd         0.14382       -1.07283        0.60221
H          0.64528        0.19030       -2.61782
H          2.94440       -0.02991        2.72606
H         -0.93998        0.62863       -3.26547
C         -5.48416       -0.46508       -0.32305
C         -4.87047       -0.86497       -1.49370
C         -3.51791       -0.63940       -1.67620
C         -2.79095       -0.01298       -0.68961
C         -3.39674        0.38202        0.48138
C         -4.74952        0.15778        0.66630
H         -6.53739       -0.64335       -0.17960
H         -5.44287       -1.35683       -2.26296
H         -3.02693       -0.95654       -2.58175
H         -2.80688        0.86120        1.24725
H         -5.22646        0.46520        1.58240
C          4.44449       -0.08983       -2.54723
C          3.76741        1.11296       -2.49027
C          2.90356        1.36852       -1.44062
C          2.72870        0.42257       -0.45708
C          3.39248       -0.78068       -0.51470
C          4.25763       -1.03923       -1.56158
H          5.11746       -0.28961       -3.36505
H          3.90988        1.85091       -3.26254
H          2.36153        2.29877       -1.38560
H          3.20540       -1.51863        0.24887
H          4.77856       -1.98128       -1.61037
H          1.67445        1.07116        3.27437
