111
-148.54936522
P         -2.59534        2.12919        0.60443
P          0.12039        0.50476        0.40229
C         -1.48416        2.03446        2.03840
C         -0.28527        1.36408        1.93083
C         -3.53765        3.72464        0.62461
C         -3.41035        4.46668       -0.68720
C         -1.83630        2.61850        3.23895
H         -2.78253        3.12622        3.32802
C         -0.98075        2.53577        4.32411
H         -1.25611        2.99199        5.26096
C          0.22317        1.86763        4.20947
H          0.88786        1.80102        5.05501
C          0.57035        1.27541        3.00857
H          1.49854        0.73524        2.90446
Pd        -1.34196        1.35692       -1.18526
Cl        -2.99728        1.99325       -2.54689
Cl         0.12316        0.57389       -2.70220
C         -4.97630        3.27140        0.95029
C         -3.99106        0.91698        0.69042
H         -3.92943        5.42759       -0.65743
H         -2.36383        4.65360       -0.93888
H         -3.84622        3.88518       -1.50046
H         -5.69314        3.95585        0.47354
H         -5.16051        3.35683        2.03131
H         -3.86503        0.22601       -0.15466
C         -5.23663        1.80638        0.49940
C         -3.96469        0.15954        1.99989
H         -3.11746        4.32911        1.43954
H         -6.08439        1.37518        1.05155
H         -5.53813        1.80142       -0.55849
H         -3.02316       -0.37987        2.12351
H         -4.06400        0.84500        2.84363
H         -4.78033       -0.56483        2.06215
C         -1.10694       -3.87702        0.61400
C         -1.01714       -3.12198        1.81189
C         -0.63622       -1.79339        1.72365
C         -0.41797       -1.20170        0.50736
C         -0.60439       -1.90015       -0.65539
C         -0.99287       -3.22751       -0.64153
O         -1.26707       -5.28694        0.67349
C         -1.28109       -3.73675        3.19529
H         -0.48781       -1.20317        2.61040
H         -0.42266       -1.38740       -1.58364
C         -1.25689       -3.93662       -1.97854
C          4.53901        0.70086       -0.68310
C          3.75910        1.88842       -0.69613
C          2.42777        1.80465       -0.31992
C          1.85488        0.59655       -0.02108
C          2.57129       -0.56680       -0.13010
C          3.90499       -0.55652       -0.50068
O          5.95252        0.77517       -0.77792
C          4.29917        3.25898       -1.13867
H          1.81719        2.69003       -0.26122
H          2.07123       -1.49821        0.07361
C          4.59990       -1.91067       -0.72236
C         -2.35640       -4.83571        3.11666
C          0.02890       -4.31655        3.74988
C         -1.80303       -2.66764        4.18194
C          0.05926       -4.52147       -2.51282
C         -2.30914       -5.04893       -1.82056
C         -1.81237       -2.93706       -3.01968
C         -0.04049       -6.00686        0.67659
H         -2.02559       -5.67116        2.50460
H         -2.59151       -5.22564        4.10670
H         -3.27417       -4.44373        2.67951
H         -0.12359       -4.75162        4.73726
H          0.42311       -5.09261        3.09822
H          0.78788       -3.53930        3.83657
H         -2.67748       -2.15985        3.77687
H         -2.09231       -3.12437        5.12816
H         -1.04431       -1.91986        4.40767
H          0.79368       -3.73247       -2.67234
H          0.48707       -5.23546       -1.81288
H         -0.09757       -5.03237       -3.46241
H         -2.54289       -5.50675       -2.78140
H         -1.95891       -5.83615       -1.15788
H         -3.23165       -4.64715       -1.40277
H         -1.06496       -2.20204       -3.31418
H         -2.12456       -3.45538       -3.92588
H         -2.67679       -2.40497       -2.62336
H          0.01493       -6.62891        1.56985
H          0.00493       -6.65875       -0.19557
H          0.80541       -5.31832        0.65998
C          6.58158        0.91546        0.48467
C          3.29156        3.91807       -2.10702
C          4.47973        4.16087        0.09307
C          5.63572        3.14454       -1.89239
C          4.88455       -2.57004        0.63683
C          3.67385       -2.83456       -1.54595
C          5.91217       -1.76746       -1.51234
H          3.68892        4.85099       -2.50600
H          3.07733        3.25707       -2.94637
H          2.34941        4.15212       -1.61446
H          3.53773        4.28467        0.62645
H          5.20189        3.73693        0.78826
H          4.83399        5.14970       -0.19703
H          5.95168        4.11200       -2.28190
H          6.42550        2.77870       -1.24045
H          5.54636        2.45296       -2.72944
H          5.35072       -3.54624        0.50567
H          5.55280       -1.95783        1.23925
H          3.96308       -2.71122        1.20110
H          2.77191       -3.09832       -0.99609
H          3.37360       -2.34902       -2.47410
H          4.17989       -3.76523       -1.80127
H          6.65229       -1.20512       -0.94779
H          5.73936       -1.24295       -2.45146
H          6.34216       -2.74240       -1.74065
H          7.66003        0.98848        0.34288
H          6.22205        1.81409        0.98342
H          6.35870        0.05332        1.11101
