171
-217.83876763
P         -1.46193        0.21722       -0.39205
P          1.72044       -0.67377        0.37387
C         -0.46275        1.07074       -1.62592
C          1.10484       -1.66623       -1.00449
C          0.45744        0.33278       -2.36055
C          1.26728        0.99223       -3.30506
C          1.08234        2.34848       -3.51757
C          0.14504        3.05980       -2.79795
C         -0.62098        2.41757       -1.84486
C          1.13888       -3.02461       -0.79313
C          0.63521       -3.89136       -1.74338
C          0.07860       -3.38458       -2.89772
C          0.01857       -2.01973       -3.12289
C          0.54942       -1.13690       -2.16354
Cl         0.63914       -1.06465        3.44327
Cl        -2.31437       -1.47909        2.26504
C         -0.62018       -1.52289       -4.37252
C          2.29480        0.24945       -4.08556
H          0.01316        4.11398       -2.97853
H         -1.34288        2.97092       -1.26892
H          1.55494       -3.40527        0.12812
H          0.67014       -4.95572       -1.57773
H          1.67893        2.84739       -4.26214
H         -0.32864       -4.05313       -3.63752
C         -4.22333       -2.63492       -2.57888
C         -3.62130       -3.06667       -1.40288
C         -2.78527       -2.18057       -0.73936
C         -2.55103       -0.92677       -1.24204
C         -3.13919       -0.52222       -2.41564
C         -3.99575       -1.37034       -3.10825
H         -4.90170       -3.28999       -3.09174
H         -2.33057       -2.46357        0.19272
H         -2.91084        0.45800       -2.79651
C         -4.19027        3.21908        1.68511
C         -3.31564        2.48426        2.47346
C         -2.47021        1.58567        1.83776
C         -2.51322        1.41221        0.47412
C         -3.40588        2.13338       -0.28157
C         -4.25359        3.06356        0.30701
H         -4.85070        3.92180        2.15901
H         -1.78508        1.00170        2.42174
H         -3.43923        1.96425       -1.34296
C          5.54464       -2.67307        1.77463
C          4.65224       -2.21100        2.73558
C          3.48054       -1.61119        2.29762
C          3.21664       -1.47844        0.95923
C          4.10906       -1.93919        0.02259
C          5.29324       -2.55150        0.41242
H          6.45426       -3.14342        2.09461
H          2.75059       -1.26514        3.00625
H          3.87239       -1.83150       -1.02321
C          2.86853        3.65600       -0.31057
C          3.64645        2.64645       -0.86055
C          3.24413        1.33361       -0.65017
C          2.12001        1.05644        0.08852
C          1.37258        2.06955        0.64410
C          1.72940        3.39754        0.44104
H          3.16993        4.67656       -0.45851
H          3.81357        0.51299       -1.05022
H          0.50588        1.81986        1.22889
Pd        -0.34499       -0.75734        1.45318
C         -4.79945       -5.30616       -1.68257
C         -3.86101       -4.45870       -0.80274
C         -4.49873       -4.30490        0.59069
C         -2.51376       -5.19398       -0.67689
H         -4.94842       -6.29462       -1.24813
H         -5.77872       -4.83734       -1.77714
H         -4.38287       -5.44339       -2.68033
H         -3.84580       -3.75349        1.26622
H         -5.44252       -3.76423        0.52420
H         -4.69695       -5.27811        1.03915
H         -2.04029       -5.29643       -1.65294
H         -1.82670       -4.65385       -0.02649
H         -2.65055       -6.19208       -0.26135
C         -6.22594       -0.72028       -4.02602
C         -4.73955       -0.91579       -4.37311
C         -4.60431       -1.97786       -5.48168
C         -4.17898        0.41537       -4.91296
H         -6.79075       -0.38691       -4.89644
H         -6.67054       -1.64996       -3.67193
H         -6.34285        0.02603       -3.24033
H         -5.10393       -1.65126       -6.39363
H         -3.55740       -2.15889       -5.72151
H         -5.05048       -2.92614       -5.18580
H         -4.32237        1.22433       -4.19740
H         -3.11466        0.33237       -5.13133
H         -4.68523        0.70262       -5.83443
C         -4.72784        2.16825        4.51297
C         -3.34951        2.62651        4.00275
C         -3.11413        4.09582        4.39781
C         -2.26743        1.76091        4.68019
H         -5.52639        2.78110        4.09625
H         -4.91716        1.13337        4.22835
H         -4.78524        2.23630        5.59915
H         -3.87204        4.75032        3.96943
H         -3.14520        4.21638        5.48057
H         -2.13992        4.43827        4.05217
H         -2.41847        0.70305        4.46606
H         -1.26994        2.04153        4.34340
H         -2.29627        1.88315        5.76268
C         -6.66860        3.66581       -0.01459
C         -5.23368        3.90962       -0.51728
C         -5.17652        3.54833       -2.01500
C         -4.86976        5.39697       -0.35838
H         -6.92892        2.61041       -0.09335
H         -6.78037        3.96128        1.02785
H         -7.38918        4.23592       -0.60075
H         -5.43585        2.50192       -2.17468
H         -5.88063        4.15317       -2.58621
H         -4.18237        3.72588       -2.42501
H         -3.84926        5.58091       -0.69438
H         -5.53788        6.02745       -0.94481
H         -4.94044        5.71189        0.68218
C          3.77835       -3.19888        4.86711
C          4.90318       -2.35094        4.24393
C          4.91274       -0.95185        4.88762
C          6.25220       -3.03426        4.53877
H          2.80545       -2.72816        4.73070
H          3.73947       -4.18539        4.40576
H          3.93668       -3.33178        5.93709
H          5.10727       -1.01603        5.95801
H          5.68589       -0.32760        4.44015
H          3.95641       -0.44782        4.75291
H          6.28322       -4.03936        4.11855
H          7.08140       -2.45994        4.12601
H          6.41437       -3.12166        5.61305
C          7.51079       -3.71838       -0.04470
C          6.25448       -3.07633       -0.66373
C          6.69681       -1.90832       -1.56455
C          5.52967       -4.13799       -1.51234
H          7.24753       -4.56678        0.58671
H          8.18167       -4.08281       -0.82261
H          8.06429       -2.99713        0.55633
H          7.18957       -1.13454       -0.97628
H          7.39586       -2.24771       -2.32868
H          5.84565       -1.45493       -2.07116
H          6.19112       -4.54485       -2.27701
H          5.18802       -4.96264       -0.88709
H          4.65910       -3.71722       -2.01442
C          4.54613        3.83018       -2.88146
C          4.92025        2.99949       -1.64146
C          5.67063        1.73537       -2.10358
C          5.86196        3.81499       -0.73547
H          4.02941        4.74770       -2.60220
H          5.43474        4.10561       -3.44918
H          3.88964        3.26326       -3.53972
H          5.96498        1.12464       -1.25046
H          5.05260        1.13007       -2.76571
H          6.57641        1.99970       -2.64908
H          6.11199        3.25256        0.16397
H          6.79078        4.05404       -1.25315
H          5.40288        4.75334       -0.42683
C         -0.34896        4.09631        1.73178
C          0.95089        4.56861        1.05888
C          0.57618        5.58673       -0.03506
C          1.83375        5.24989        2.11952
H         -0.14155        3.41419        2.55543
H         -0.90400        4.94355        2.13333
H         -0.99469        3.59082        1.01583
H          1.45966        5.99620       -0.52256
H         -0.04408        5.12010       -0.79871
H          0.01481        6.42040        0.38657
H          1.30844        6.08080        2.59014
H          2.11341        4.54156        2.89920
H          2.75013        5.63949        1.67732
H         -0.00019       -1.74401       -5.24251
H          1.88081       -0.11771       -5.02544
H         -0.78482       -0.44544       -4.33975
H         -1.58937       -1.99951       -4.52172
H          2.67226       -0.60695       -3.52444
H          3.14624        0.88852       -4.32337
