171
-217.84513614
P         -1.62900        0.43958       -0.33650
P          1.62074       -0.37303       -0.34669
C         -0.88505        1.42731       -1.63989
C          0.88175       -1.29141       -1.70059
C         -0.07222        0.83957       -2.60316
C          0.58091        1.66883       -3.53505
C          0.37054        3.03694       -3.48899
C         -0.45942        3.59765       -2.54139
C         -1.07950        2.78689       -1.61136
C          1.06760       -2.65119       -1.75066
C          0.47555       -3.39603       -2.75172
C         -0.31216       -2.76936       -3.69414
C         -0.51301       -1.39936       -3.66038
C          0.10511       -0.63785       -2.65024
Cl         1.64075        0.49302        2.78017
Cl        -1.53251       -0.35902        2.88259
C         -1.35462       -0.75333       -4.70485
C          1.49307        1.10554       -4.56826
H         -0.61864        4.66334       -2.52063
H         -1.71787        3.21762       -0.85714
H          1.68046       -3.13237       -1.00575
H          0.62930       -4.46179       -2.79610
H          0.87013        3.66570       -4.20666
H         -0.78162       -3.34688       -4.47259
C         -3.80344       -3.31876       -1.59288
C         -2.86445       -3.39285       -0.57114
C         -2.18738       -2.23036       -0.22943
C         -2.44271       -1.05461       -0.88969
C         -3.37801       -0.99421       -1.89315
C         -4.08269       -2.13398       -2.26380
H         -4.35093       -4.20080       -1.86673
H         -1.47422       -2.23391        0.57719
H         -3.56376       -0.04593       -2.36815
C         -4.49588        2.80932        2.25663
C         -3.14802        3.14950        2.27176
C         -2.28956        2.43651        1.44583
C         -2.76298        1.41452        0.66151
C         -4.09476        1.08280        0.66921
C         -4.99325        1.78134        1.46506
H         -5.18151        3.34810        2.88307
H         -1.23777        2.66726        1.42761
H         -4.42518        0.26232        0.05756
C          4.26800       -2.98751        2.24600
C          4.85210       -1.96583        1.50743
C          4.02361       -1.18392        0.71331
C          2.67548       -1.43347        0.65347
C          2.11609       -2.44877        1.38865
C          2.90108       -3.23780        2.21912
H          4.90069       -3.59768        2.86248
H          4.42290       -0.36446        0.14326
H          1.05461       -2.61300        1.32227
C          3.95909        3.28138       -1.61092
C          2.93280        3.42847       -0.68649
C          2.22400        2.29203       -0.31936
C          2.52218        1.07634       -0.88173
C          3.52710        0.94936       -1.80885
C          4.27414        2.05823       -2.18987
H          4.54488        4.14314       -1.87244
H          1.44018        2.34260        0.41613
H          3.72829       -0.02503       -2.22069
Pd         0.00377        0.06006        1.29041
C         -3.46799       -5.84873       -0.26798
C         -2.57673       -4.68487        0.20562
C         -2.84351       -4.44474        1.70400
C         -1.10524       -5.08096       -0.00277
H         -3.25341       -6.75466        0.29882
H         -4.52363       -5.61528       -0.13037
H         -3.29649       -6.07101       -1.32105
H         -3.87996       -4.15034        1.86725
H         -2.65258       -5.34720        2.28435
H         -2.20817       -3.65389        2.10001
H         -0.90742       -5.28056       -1.05522
H         -0.43572       -4.28431        0.31687
H         -0.85809       -5.97871        0.56345
C         -6.53258       -2.45511       -2.66872
C         -5.18655       -2.10624       -3.33069
C         -4.86954       -3.13773       -4.42971
C         -5.31266       -0.71582       -3.98353
H         -6.76695       -1.74557       -1.87561
H         -7.34387       -2.42871       -3.39597
H         -6.51037       -3.45160       -2.22900
H         -3.90247       -2.93311       -4.88686
H         -4.84042       -4.14991       -4.02840
H         -5.62491       -3.11431       -5.21502
H         -4.38044       -0.41935       -4.46263
H         -6.09043       -0.71640       -4.74706
H         -5.57751        0.04151       -3.24589
C         -2.12796        5.43271        2.25098
C         -2.58415        4.27292        3.15266
C         -1.38484        3.73833        3.96128
C         -3.63724        4.80170        4.14540
H         -2.96745        5.83180        1.68200
H         -1.70164        6.24383        2.84096
H         -1.37351        5.10066        1.53980
H         -1.67929        2.87764        4.56132
H         -0.56895        3.42659        3.31095
H         -0.99587        4.50261        4.63368
H         -4.48203        5.24995        3.62300
H         -4.00969        3.99998        4.78288
H         -3.20884        5.56781        4.79158
C         -6.82819        0.28724        0.52806
C         -6.48687        1.42891        1.50695
C         -7.31562        2.66667        1.11707
C         -6.85952        0.97918        2.93120
H         -6.28666       -0.62386        0.78218
H         -7.89283        0.05603        0.55880
H         -6.57967        0.56309       -0.49664
H         -7.15433        3.48833        1.81380
H         -7.04253        3.01379        0.12070
H         -8.38110        2.43737        1.11439
H         -6.26468        0.11588        3.22901
H         -6.68176        1.77310        3.65567
H         -7.91182        0.70187        2.99058
C          6.72515       -1.34781        3.05206
C          6.36376       -1.71511        1.60149
C          6.80579       -0.56108        0.67958
C          7.12062       -2.98862        1.18164
H          7.79124       -1.14345        3.14937
H          6.17981       -0.45944        3.37016
H          6.47585       -2.15620        3.73844
H          6.31563        0.37241        0.95568
H          7.88158       -0.40045        0.74850
H          6.57078       -0.78111       -0.36164
H          8.19844       -2.83039        1.21522
H          6.88689       -3.82484        1.83942
H          6.85332       -3.27706        0.16518
C          2.13215       -5.61201        2.12774
C          2.26637       -4.37578        3.03162
C          0.87272       -3.95529        3.54403
C          3.13048       -4.73509        4.25702
H          3.11086       -5.94873        1.78635
H          1.65544       -6.43612        2.65817
H          1.53448       -5.38457        1.24609
H          0.93168       -3.01954        4.09962
H          0.16847       -3.81802        2.72585
H          0.45540       -4.71458        4.20509
H          3.32165       -3.85310        4.86808
H          2.62776       -5.47302        4.88211
H          4.08737       -5.16243        3.95972
C          2.43428        5.83991       -1.18763
C          2.64262        4.80240       -0.06820
C          3.83407        5.21836        0.81184
C          1.37172        4.77028        0.80267
H          3.33213        5.96098       -1.79211
H          1.62442        5.53452       -1.84905
H          2.18097        6.81525       -0.77247
H          3.99986        4.48819        1.60383
H          4.74979        5.28925        0.22569
H          3.65673        6.18791        1.27691
H          0.51174        4.44375        0.21889
H          1.49111        4.09606        1.65040
H          1.14924        5.76036        1.20023
C          5.30823        2.99014       -4.28924
C          5.46013        1.95335       -3.15947
C          5.54982        0.55211       -3.79516
C          6.76186        2.22577       -2.38431
H          5.30939        4.00752       -3.90056
H          6.12802        2.90929       -5.00289
H          4.37599        2.84068       -4.83200
H          6.37449        0.50198       -4.50602
H          5.72318       -0.21310       -3.03885
H          4.63407        0.30581       -4.33200
H          7.63006        2.14886       -3.03860
H          6.75780        3.22411       -1.94791
H          6.88509        1.50827       -1.57371
H         -1.76557        0.19425       -4.35381
H          1.77193        0.07635       -4.33853
H         -2.19174       -1.39363       -4.98311
H         -0.77306       -0.55626       -5.60631
H          2.41245        1.68791       -4.62940
H          1.02300        1.11783       -5.55256
