72
-108.39263887
Cl        -1.80119        0.29771        2.87441
Cl         0.89358       -1.36093        2.68049
P          1.18599       -1.00827       -0.30604
P         -2.19061        0.21584       -0.35841
C         -3.35692       -1.27413       -0.21215
C         -4.03638       -1.23593        1.15365
C         -4.41777       -1.26061       -1.32236
C         -3.11396        1.86916       -0.11334
C         -2.30645        2.97341       -0.79374
C         -1.42756        0.37201       -2.07465
C         -1.37340       -0.88994       -2.91729
C          1.15066        0.28643       -1.58098
C         -0.04272        1.00236       -2.03616
C          0.40153        2.07922       -2.92412
C          1.85065        2.05203       -2.97131
C          2.31031        0.94421       -2.15352
C         -2.52271       -2.54985       -0.30197
H         -4.67845       -0.36353        1.26018
H         -4.66218       -2.11853        1.29613
H         -5.27952       -0.65269       -1.05144
H         -4.79660       -2.26709       -1.50776
C         -4.49402        1.80842       -0.75924
H         -2.66004        3.96023       -0.48966
H         -2.38588        2.92663       -1.87969
H         -2.10459        1.07246       -2.57663
H         -0.66943       -1.59938       -2.49187
H         -1.01429       -0.66794       -3.92418
H         -2.33594       -1.38615       -3.02095
H         -0.24883        2.73364       -3.50751
H          2.48493        2.71699       -3.56207
Pd        -0.50083       -0.39177        1.18935
H          3.34828        0.65120       -1.98022
C         -3.25435        2.19355        1.36853
H         -1.25628        2.89606       -0.53097
H         -5.16600        1.15904       -0.20134
H         -4.95246        2.79859       -0.77557
H         -4.43258        1.45760       -1.78970
H         -3.78926        1.41097        1.90354
H         -2.27931        2.31092        1.83804
H         -3.80259        3.12590        1.51213
H         -3.30143       -1.22029        1.95799
H         -4.02773       -0.87175       -2.26043
H         -1.78539       -2.59554        0.49878
H         -3.15673       -3.43279       -0.20494
H         -1.99904       -2.63152       -1.25105
C          2.87130       -1.12765        0.34328
C          3.67182       -2.21981        0.11466
C          4.88926       -1.97654        0.75157
C          4.78052       -0.74151        1.34188
O          3.54827       -0.20950        1.09508
H          3.39903       -3.09554       -0.45259
H          5.74534       -2.63078        0.77717
H          5.54943       -0.24688        1.92259
C          0.74624       -2.66725       -0.85499
C          0.56792       -3.67493        0.05924
C          0.25073       -4.82865       -0.65912
C          0.25094       -4.47427       -1.98644
O          0.55321       -3.14878       -2.12132
H          0.66146       -3.57027        1.12890
H          0.04749       -5.80547       -0.25175
H          0.04317       -5.13682       -2.81749
Fe         1.23268        2.24890       -1.04466
C          2.22082        3.95168       -0.49987
C          2.87104        2.77145        0.04209
C          1.91320        2.07648        0.87856
C          0.67588        2.82502        0.85490
C          0.86565        3.99584        0.01758
H          2.68561        4.70011       -1.14592
H          3.90840        2.47079       -0.12306
H          2.09499        1.16290        1.44652
H         -0.20519        2.58538        1.45145
H          0.13643        4.78892       -0.16164
