111
-148.55475923
P         -2.26473        2.18838        0.97323
P          0.07833        0.11458        0.49930
C         -1.29078        1.60079        2.38039
C         -0.27487        0.69591        2.16770
C         -2.43409        4.02936        1.00468
C         -1.54609        4.67268       -0.03838
C         -1.55675        2.05278        3.65678
H         -2.35394        2.76086        3.81518
C         -0.80034        1.59175        4.72060
H         -1.00658        1.94304        5.71843
C          0.21729        0.68189        4.50506
H          0.80591        0.32295        5.33321
C          0.48078        0.23154        3.22351
H          1.27199       -0.47763        3.03618
Pd        -1.33240        1.27875       -0.92761
Cl        -2.94850        2.31582       -2.08666
Cl        -0.32406        0.27372       -2.65891
C         -3.94337        4.23935        0.78284
C         -4.04731        1.69315        1.04968
H         -1.64504        5.76071       -0.03153
H         -0.49467        4.42563        0.12841
H         -1.80932        4.32388       -1.03856
H         -4.12565        4.37175       -0.29259
H         -4.27454        5.17601        1.25658
H         -4.29363        1.30672        0.05171
C         -4.77161        3.02925        1.30117
C         -4.28874        0.63867        2.10935
H         -2.14542        4.35103        2.01374
H         -4.94472        3.14028        2.38037
H         -5.77209        3.01375        0.84287
H         -4.03492        1.01908        3.10011
H         -5.33596        0.32835        2.13327
H         -3.67537       -0.24802        1.93608
C         -1.21189       -4.23654        0.11549
C         -2.15249       -3.18735       -0.04290
C         -1.71125       -1.88390        0.11080
C         -0.38688       -1.60452        0.32680
C          0.54227       -2.60963        0.39011
C          0.16828       -3.93583        0.24657
O         -1.65649       -5.58430        0.17484
C         -3.63285       -3.44058       -0.36930
H         -2.40413       -1.06191        0.06217
H          1.57036       -2.34332        0.56210
C          1.25346       -5.02434        0.25138
C          4.32255        1.19075       -0.76397
C          3.63177        1.99095        0.18145
C          2.35844        1.60167        0.56358
C          1.75048        0.51127       -0.00324
C          2.36992       -0.19639       -0.99958
C          3.64406        0.13674       -1.42740
O          5.69737        1.42719       -1.03211
C          4.24213        3.25789        0.80146
H          1.81728        2.15036        1.31528
H          1.83033       -1.00707       -1.45676
C          4.27352       -0.64051       -2.59433
C         -3.79696       -4.69428       -1.24743
C         -4.42510       -3.60084        0.93681
C         -4.22662       -2.25367       -1.16331
C          2.58034       -4.47288       -0.31757
C          1.49514       -5.49558        1.69316
C          0.84933       -6.21561       -0.63639
C         -1.97267       -6.03414        1.48623
H         -3.47121       -5.59015       -0.72462
H         -4.83849       -4.83946       -1.53301
H         -3.20468       -4.60473       -2.15747
H         -5.48316       -3.76434        0.73376
H         -4.06077       -4.44415        1.51830
H         -4.33432       -2.70838        1.55517
H         -4.30539       -1.35699       -0.55072
H         -3.61174       -2.02196       -2.03264
H         -5.23068       -2.48750       -1.51626
H          3.02208       -3.72608        0.34039
H          3.31367       -5.27069       -0.43312
H          2.42152       -4.02054       -1.29603
H          0.58992       -5.91182        2.12869
H          2.26930       -6.26165        1.72906
H          1.81313       -4.66421        2.32188
H          0.63113       -5.88141       -1.65014
H          1.64792       -6.95530       -0.68725
H         -0.03663       -6.71485       -0.25220
H         -3.01036       -6.36583        1.51811
H         -1.33737       -6.88072        1.74583
H         -1.82383       -5.23204        2.21022
C          6.58730        0.71994       -0.17793
C          5.19686        3.95476       -0.18502
C          3.13617        4.27987        1.15233
C          4.98999        2.88350        2.08993
C          5.16528        0.27979       -3.44744
C          5.09811       -1.81352       -2.04396
C          3.17974       -1.20439       -3.53001
H          4.68323        4.18420       -1.11804
H          5.57819        4.88708        0.23072
H          6.05192        3.32668       -0.42163
H          3.57155        5.22702        1.47007
H          2.50211        4.47647        0.28812
H          2.50576        3.92918        1.96815
H          4.31212        2.42320        2.80847
H          5.78995        2.17469        1.89008
H          5.42927        3.76477        2.55668
H          6.00882        0.65641       -2.87383
H          5.56439       -0.25155       -4.31103
H          4.59725        1.13651       -3.80847
H          5.53353       -2.39857       -2.85365
H          5.90886       -1.46308       -1.41039
H          4.47385       -2.47640       -1.44630
H          2.49284       -0.41798       -3.84181
H          2.60290       -1.99151       -3.04684
H          3.62247       -1.63724       -4.42670
H          7.26609        0.11597       -0.77990
H          7.18349        1.42747        0.39782
H          6.03032        0.07467        0.50257
