111
-148.55369250
P         -2.50205        2.13487        1.00422
P          0.08017        0.32325        0.54421
C         -1.45743        1.66234        2.41082
C         -0.31730        0.91722        2.19848
C         -3.15339        3.85748        1.19002
C         -2.43509        4.82632        0.27630
C         -1.80265        2.03891        3.69305
H         -2.70555        2.60373        3.85785
C         -0.99717        1.67566        4.75873
H         -1.26652        1.96950        5.76011
C          0.14939        0.93593        4.54129
H          0.77542        0.65182        5.37108
C          0.48842        0.55187        3.25622
H          1.37109       -0.03984        3.06900
Pd        -1.29873        1.51635       -0.86843
Cl        -2.88475        2.58567       -2.04304
Cl        -0.01043        0.88324       -2.59689
C         -4.65628        3.68612        0.90123
C         -4.08922        1.18930        0.91133
H         -2.81982        5.84247        0.39002
H         -1.36205        4.84398        0.48175
H         -2.56273        4.54212       -0.76889
H         -4.83327        3.87575       -0.16647
H         -5.24041        4.44890        1.43827
H         -4.19498        0.87586       -0.13596
C         -5.14671        2.25353        1.25964
C         -4.06678       -0.01169        1.83193
H         -2.99819        4.13570        2.24017
H         -5.36278        2.19876        2.33549
H         -6.09852        2.02676        0.75564
H         -5.01005       -0.56165        1.79531
H         -3.26261       -0.69986        1.56179
H         -3.90114        0.29548        2.86623
C         -1.14904       -4.02698       -0.00213
C         -1.21963       -3.44203        1.28871
C         -0.83060       -2.12069        1.43242
C         -0.46391       -1.37137        0.34550
C         -0.50933       -1.89923       -0.91720
C         -0.88028       -3.21432       -1.13276
O         -1.30643       -5.42991       -0.15747
C         -1.67205       -4.22749        2.52960
H         -0.79600       -1.66039        2.40380
H         -0.24287       -1.25718       -1.73840
C         -0.94805       -3.74179       -2.57393
C          4.42513        0.79365       -0.71904
C          3.88661       -0.50225       -0.51343
C          2.56114       -0.60593       -0.12761
C          1.80532        0.51015        0.11827
C          2.34853        1.76369        0.02020
C          3.66929        1.93969       -0.36042
O          5.70445        0.94282       -1.31780
C          4.69658       -1.78730       -0.74619
H          2.09070       -1.56912       -0.03370
H          1.71522        2.60924        0.22813
C          4.24276        3.36395       -0.42368
C         -0.44814       -4.87762        3.19212
C         -2.34805       -3.28848        3.55467
C         -2.70891       -5.30330        2.15834
C          0.43166       -4.28113       -2.98089
C         -2.01309       -4.84439       -2.71271
C         -1.34226       -2.60897       -3.54971
C         -0.09049       -6.16118       -0.06029
H          0.04979       -5.56440        2.51175
H          0.27735       -4.12018        3.48809
H         -0.73641       -5.43558        4.08264
H         -2.76860       -3.85918        4.38234
H         -1.64122       -2.57937        3.98276
H         -3.15893       -2.72810        3.09072
H         -3.07962       -5.81374        3.04689
H         -3.55902       -4.85551        1.64471
H         -2.28153       -6.05650        1.50117
H          0.41899       -4.65402       -4.00468
H          1.18500       -3.49647       -2.91668
H          0.74513       -5.09425       -2.33045
H         -2.10481       -5.17271       -3.74772
H         -1.76314       -5.71556       -2.11240
H         -2.98625       -4.48079       -2.38448
H         -1.51945       -3.00364       -4.54982
H         -2.25409       -2.11224       -3.21933
H         -0.55730       -1.85941       -3.63733
H         -0.16060       -6.88060        0.75539
H          0.08078       -6.71118       -0.98548
H          0.74667       -5.48591        0.12149
C          5.67297        1.03074       -2.73697
C          4.54491       -2.22495       -2.21098
C          6.18233       -1.57502       -0.40437
C          4.18318       -2.92934        0.16114
C          3.56417        4.27255        0.62679
C          5.75067        3.37197       -0.11362
C          3.98380        3.95197       -1.81927
H          5.09324       -3.14705       -2.40211
H          3.49691       -2.39832       -2.45371
H          4.91940       -1.46435       -2.89144
H          6.74548       -2.50176       -0.51151
H          6.63839       -0.83575       -1.05806
H          6.29378       -1.22692        0.62198
H          3.18545       -3.25726       -0.12754
H          4.83614       -3.79930        0.09442
H          4.15314       -2.61291        1.20344
H          4.05520        5.24438        0.67235
H          2.51774        4.45516        0.38707
H          3.61656        3.82427        1.61863
H          6.14164        4.38899       -0.09592
H          5.94504        2.91679        0.85693
H          6.31315        2.81719       -0.86018
H          4.46172        3.35657       -2.59330
H          4.36693        4.96945       -1.89211
H          2.91571        3.97649       -2.03427
H          6.10023        1.98158       -3.05486
H          6.27317        0.22876       -3.16638
H          4.64719        0.95303       -3.09974
