171
-217.83681081
P         -1.63589        0.77907        0.33559
P          1.44913       -0.27883       -0.43281
C         -0.98240        1.75532       -1.03842
C          0.38821       -1.06013       -1.66350
C         -0.45863        1.21179       -2.20547
C          0.12521        2.07505       -3.15184
C          0.14101        3.43803       -2.90824
C         -0.39138        3.96028       -1.74926
C         -0.94333        3.11072       -0.81026
C          0.42693       -2.41875       -1.85830
C         -0.39186       -3.00959       -2.80021
C         -1.25218       -2.22999       -3.54550
C         -1.31202       -0.85749       -3.36265
C         -0.46142       -0.25818       -2.41445
Cl         2.40543        1.38751        2.27183
Cl        -0.54641        0.89628        3.46719
C         -2.25542       -0.03007       -4.16500
C          0.75511        1.56045       -4.39876
H         -0.36694        5.02270       -1.56979
H         -1.33813        3.50178        0.11598
H          1.09836       -3.02085       -1.27149
H         -0.36201       -4.07680       -2.94784
H          0.58998        4.09210       -3.63677
H         -1.88821       -2.68917       -4.28300
C         -3.05117       -3.50056       -0.16280
C         -1.92100       -3.26866        0.61300
C         -1.46738       -1.96029        0.72617
C         -2.12144       -0.93535        0.08256
C         -3.24495       -1.18398       -0.66690
C         -3.73404       -2.47618       -0.80755
H         -3.42458       -4.50260       -0.24698
H         -0.61414       -1.73881        1.34261
H         -3.76568       -0.35679       -1.11768
C         -5.37289        2.89889        1.77707
C         -5.16141        2.73468        0.41297
C         -3.99646        2.09455        0.01113
C         -3.08937        1.64438        0.93852
C         -3.31396        1.81711        2.27989
C         -4.46442        2.45115        2.72874
H         -6.26622        3.38921        2.11541
H         -3.78958        1.95015       -1.03659
H         -2.57163        1.46127        2.96996
C          3.97450       -3.49760        1.57702
C          4.00962       -3.34815        0.19713
C          3.23099       -2.34633       -0.36885
C          2.42895       -1.54758        0.41017
C          2.41695       -1.71152        1.77515
C          3.19643       -2.68150        2.38782
H          4.57430       -4.26782        2.02408
H          3.24351       -2.18537       -1.43203
H          1.81180       -1.06808        2.38620
C          4.39562        2.39261       -2.60527
C          4.08226        1.15061       -3.14433
C          3.16873        0.35822       -2.45852
C          2.60906        0.79351       -1.28210
C          2.93030        2.02318       -0.76814
C          3.82441        2.85543       -1.42568
H          5.11765        3.00353       -3.11297
H          2.87461       -0.60144       -2.84633
H          2.50014        2.32642        0.16935
Pd         0.41807        0.75783        1.43879
C         -1.38673       -4.06981        2.91748
C         -1.23797       -4.38530        1.41816
C          0.25281       -4.46423        1.04692
C         -1.87198       -5.76290        1.14386
H         -2.43899       -4.01227        3.19511
H         -0.91841       -4.84085        3.52878
H         -0.92674       -3.11446        3.16574
H          0.75208       -3.51386        1.22021
H          0.76519       -5.22161        1.63987
H          0.37436       -4.72508       -0.00357
H         -2.92135       -5.77937        1.43748
H         -1.80235       -6.02256        0.08759
H         -1.36110       -6.54191        1.70973
C         -6.19716       -2.06440       -0.74957
C         -5.05507       -2.70858       -1.55606
C         -5.35552       -4.20981       -1.73089
C         -4.98834       -2.06716       -2.95339
H         -6.03241       -0.99484       -0.62427
H         -7.15588       -2.20121       -1.24941
H         -6.26582       -2.50854        0.24326
H         -4.54715       -4.70991       -2.26426
H         -5.49120       -4.70043       -0.76736
H         -6.27146       -4.35639       -2.30326
H         -4.83202       -0.99133       -2.89128
H         -4.17284       -2.49775       -3.53251
H         -5.91450       -2.23416       -3.50313
C         -6.65262        2.01782       -1.47026
C         -6.15352        3.22326       -0.65169
C         -5.44405        4.22385       -1.58343
C         -7.37140        3.92320       -0.01892
H         -5.82922        1.51250       -1.97381
H         -7.14638        1.29248       -0.82405
H         -7.36630        2.33165       -2.23178
H         -6.12917        4.60592       -2.34000
H         -5.05980        5.07151       -1.01639
H         -4.60447        3.75913       -2.09922
H         -7.06560        4.79288        0.56241
H         -8.06237        4.26726       -0.78847
H         -7.91843        3.24412        0.63484
C         -4.87905        4.17223        4.50547
C         -4.75003        2.66432        4.22231
C         -3.61872        2.09825        5.10350
C         -6.06194        1.95017        4.59589
H         -3.96521        4.69543        4.22454
H         -5.70253        4.61216        3.94421
H         -5.06162        4.35612        5.56408
H         -3.49915        1.02626        4.94831
H         -2.66901        2.58580        4.88462
H         -3.83462        2.25636        6.15996
H         -5.99396        0.88399        4.38036
H         -6.28119        2.06694        5.65708
H         -6.90539        2.35159        4.03540
C          4.35618       -5.72746       -0.49821
C          4.87481       -4.28664       -0.65549
C          6.33898       -4.20376       -0.18558
C          4.82367       -3.90708       -2.14891
H          3.31505       -5.79768       -0.81321
H          4.94007       -6.42112       -1.10293
H          4.41413       -6.05687        0.53866
H          6.70913       -3.18142       -0.26084
H          6.44326       -4.52234        0.85077
H          6.98033       -4.84058       -0.79466
H          3.80869       -3.97996       -2.53934
H          5.18381       -2.89051       -2.30586
H          5.45130       -4.57426       -2.73954
C          3.72811       -1.45336        4.50298
C          3.20260       -2.77891        3.92022
C          4.10340       -3.92633        4.41520
C          1.77124       -3.03087        4.42619
H          3.76167       -1.49076        5.59152
H          4.73419       -1.24545        4.13966
H          3.09190       -0.61632        4.21736
H          3.76271       -4.88648        4.02795
H          5.13752       -3.77492        4.10635
H          4.09051       -3.98584        5.50344
H          1.75141       -3.12002        5.51212
H          1.10399       -2.21577        4.14916
H          1.37412       -3.95383        4.00546
C          4.13955       -0.62623       -4.96617
C          4.79491        0.65468       -4.41167
C          6.26151        0.34669       -4.06207
C          4.74260        1.73408       -5.51057
H          4.62541       -0.94031       -5.88985
H          4.22179       -1.45088       -4.25898
H          3.08461       -0.46335       -5.18508
H          6.80370       -0.01817       -4.93425
H          6.77177        1.23741       -3.69656
H          6.32011       -0.41445       -3.28410
H          5.21932        1.37943       -6.42430
H          3.71288        1.99492       -5.75142
H          5.25747        2.64365       -5.20495
C          5.14786        5.01389       -1.69167
C          4.15692        4.22396       -0.81590
C          4.78524        4.01816        0.57505
C          2.86125        5.04564       -0.68211
H          4.73986        5.18500       -2.68774
H          5.36209        5.98743       -1.25084
H          6.09407        4.48240       -1.79115
H          4.09843        3.50607        1.24792
H          5.69119        3.41688        0.50276
H          5.04789        4.97287        1.03014
H          2.39327        5.18504       -1.65625
H          2.14149        4.54782       -0.03331
H          3.06436        6.02993       -0.26084
H         -3.04016       -0.64032       -4.61345
H          0.19871        1.88240       -5.28023
H         -1.73528        0.48197       -4.97490
H         -2.73651        0.72627       -3.54254
H          0.80299        0.47108       -4.40690
H          1.77452        1.93543       -4.49252
