171
-217.84737390
P         -1.61281        0.44601       -0.28757
P          1.56799       -0.38255       -0.32106
C         -0.89886        1.41304       -1.62486
C          0.83395       -1.30961       -1.67224
C         -0.11467        0.81000       -2.60228
C          0.51813        1.62527       -3.56080
C          0.31442        2.99469       -3.52698
C         -0.48893        3.57051       -2.56602
C         -1.08782        2.77377       -1.61061
C          1.03021       -2.66814       -1.71102
C          0.44806       -3.42473       -2.70920
C         -0.34499       -2.81153       -3.65603
C         -0.55694       -1.44294       -3.63301
C          0.05939       -0.66795       -2.63168
Cl         1.71832        0.50904        2.75741
Cl        -1.46221       -0.05892        3.02918
C         -1.41425       -0.81553       -4.67612
C          1.40439        1.04772       -4.60854
H         -0.64354        4.63705       -2.55468
H         -1.70799        3.21760       -0.84933
H          1.64279       -3.13797       -0.95829
H          0.61233       -4.48913       -2.74711
H          0.79824        3.61231       -4.26487
H         -0.81063       -3.39878       -4.42949
C         -3.77393       -3.34818       -1.45793
C         -2.80197       -3.40843       -0.46644
C         -2.12427       -2.23821       -0.15293
C         -2.41488       -1.06736       -0.80768
C         -3.37971       -1.02191       -1.78351
C         -4.08398       -2.17006       -2.12706
H         -4.32344       -4.23603       -1.70781
H         -1.37701       -2.23393        0.62209
H         -3.58942       -0.07797       -2.25737
C         -4.53319        2.85837        2.21380
C         -3.19236        3.22748        2.21175
C         -2.31741        2.49804        1.41791
C         -2.76682        1.43411        0.67665
C         -4.09095        1.07522        0.70188
C         -5.00515        1.78364        1.46862
H         -5.22440        3.41557        2.81608
H         -1.27011        2.74803        1.39391
H         -4.41454        0.22452        0.12803
C          4.31235       -3.02951        2.14332
C          2.93804       -3.19658        2.26576
C          2.11291       -2.39923        1.48221
C          2.64907       -1.45261        0.64424
C          4.00828       -1.28527        0.55670
C          4.87166       -2.07667        1.30040
H          4.95811       -3.65866        2.72621
H          1.04269       -2.49687        1.53548
H          4.40282       -0.52079       -0.08881
C          3.91911        3.23381       -1.67170
C          4.19814        2.00315       -2.25366
C          3.44431        0.90868       -1.84638
C          2.47202        1.05421       -0.88766
C          2.20723        2.27751       -0.32545
C          2.91931        3.40172       -0.72191
H          4.51313        4.08443       -1.95026
H          3.61471       -0.06920       -2.26385
H          1.44635        2.34436        0.43227
Pd         0.01080        0.11668        1.34717
C         -2.65147       -4.43970        1.81378
C         -2.47626       -4.69535        0.30426
C         -1.02329       -5.10583        0.00857
C         -3.40436       -5.85629       -0.10138
H         -1.98855       -3.65046        2.16507
H         -3.67431       -4.13581        2.03526
H         -2.43379       -5.33865        2.39016
H         -0.89951       -5.33665       -1.04878
H         -0.32931       -4.30453        0.25679
H         -0.74005       -5.98863        0.58145
H         -3.29316       -6.09753       -1.15834
H         -3.16872       -6.75566        0.46750
H         -4.44834       -5.60822        0.08946
C         -6.54783       -2.47660       -2.43514
C         -5.22479       -2.15461       -3.15432
C         -4.95624       -3.21098       -4.24268
C         -5.36225       -0.77746       -3.83277
H         -6.51629       -3.46319       -1.97408
H         -6.74641       -1.74762       -1.64962
H         -7.38563       -2.45938       -3.13197
H         -4.92474       -4.21572       -3.82336
H         -5.73738       -3.19410       -5.00253
H         -4.00288       -3.02552       -4.73578
H         -4.44257       -0.49730       -4.34483
H         -6.16207       -0.78950       -4.57309
H         -5.60144       -0.00256       -3.10485
C         -1.45817        3.91150        3.89387
C         -2.64995        4.39742        3.04465
C         -3.72043        4.96553        3.99610
C         -2.18923        5.51665        2.09482
H         -1.75492        3.07848        4.53069
H         -0.63197        3.57435        3.26969
H         -1.08326        4.71012        4.53356
H         -3.30775        5.76873        4.60648
H         -4.56326        5.37676        3.44107
H         -4.09229        4.19427        4.67043
H         -1.41882        5.15930        1.41353
H         -3.02259        5.87879        1.49308
H         -1.78126        6.35994        2.65176
C         -7.33842        2.23407        2.38376
C         -6.47528        1.34136        1.47213
C         -6.56455       -0.11012        1.98072
C         -7.03176        1.42098        0.03819
H         -6.99020        2.19352        3.41567
H         -7.31686        3.27170        2.05113
H         -8.37787        1.90629        2.37363
H         -6.14599       -0.19227        2.98355
H         -7.59998       -0.44815        2.01721
H         -6.01464       -0.79212        1.33304
H         -6.95753        2.43747       -0.34773
H         -6.48132        0.76661       -0.63665
H         -8.07988        1.12371        0.00891
C          3.00564       -4.03128        4.63671
C          2.37352       -4.23496        3.24609
C          2.69874       -5.64535        2.72567
C          0.84551       -4.10003        3.39596
H          4.08209       -4.19478        4.61607
H          2.82616       -3.01740        4.99396
H          2.58118       -4.72468        5.36253
H          3.77487       -5.79323        2.64004
H          2.30633       -6.40959        3.39630
H          2.26012       -5.80238        1.74026
H          0.34072       -4.31218        2.45567
H          0.46419       -4.80303        4.13634
H          0.57081       -3.09555        3.71796
C          6.81452       -2.07308       -0.28496
C          6.38526       -1.85162        1.17742
C          7.18093       -2.81934        2.07382
C          6.71618       -0.40766        1.59989
H          6.56588       -3.08296       -0.61055
H          6.31489       -1.37374       -0.95402
H          7.88926       -1.93489       -0.40168
H          6.92286       -2.68304        3.12385
H          6.98649       -3.85640        1.80090
H          8.25245       -2.64708        1.97293
H          7.78811       -0.21961        1.54217
H          6.21600        0.31753        0.95892
H          6.39476       -0.22402        2.62486
C          5.25005        2.94071       -4.34336
C          5.36405        1.86731       -3.24346
C          5.37643        0.48196       -3.91966
C          6.68584        2.05211       -2.47678
H          5.32209        3.94601       -3.93088
H          6.04734        2.82954       -5.07811
H          4.29822        2.86095       -4.86689
H          5.53214       -0.31222       -3.19021
H          4.43919        0.29147       -4.44149
H          6.18241        0.41572       -4.65037
H          6.73288        3.03470       -2.00816
H          6.78354        1.30295       -1.69121
H          7.54209        1.95615       -3.14414
C          1.40280        4.77624        0.78350
C          2.65917        4.78422       -0.10930
C          2.44458        5.81574       -1.23316
C          3.87155        5.19036        0.74611
H          1.52891        4.11055        1.63697
H          1.19740        5.77306        1.17332
H          0.52967        4.45247        0.21796
H          3.33290        5.92015       -1.85456
H          1.61880        5.51602       -1.87740
H          2.21179        6.79760       -0.82139
H          3.71585        6.16582        1.20653
H          4.04138        4.46407        1.54080
H          4.77749        5.24393        0.14314
H         -1.81272        0.14260       -4.33955
H          2.32064        1.63098       -4.70246
H         -2.26083       -1.45684       -4.92238
H         -0.84943       -0.64403       -5.59331
H          0.90926        1.04506       -5.58053
H          1.69063        0.02241       -4.37072
