111
-148.55351917
P         -2.50593        2.12945        0.94545
P          0.07957        0.34416        0.52929
C         -1.44888        1.73076        2.36293
C         -0.30549        0.98691        2.16861
C         -3.17333        3.85234        1.05649
C         -2.49616        4.77210        0.06399
C         -1.78580        2.15554        3.63217
H         -2.69149        2.71998        3.78245
C         -0.96747        1.84062        4.70343
H         -1.22966        2.17174        5.69502
C          0.18262        1.10104        4.50413
H          0.81849        0.85450        5.33844
C          0.51301        0.66927        3.23201
H          1.39908        0.07827        3.05961
Pd        -1.33328        1.46426       -0.92833
Cl        -2.95035        2.39327       -2.16841
Cl         0.08963        0.83136       -2.55228
C         -4.68279        3.65167        0.82501
C         -4.08430        1.16526        0.91597
H         -2.88947        5.78926        0.12925
H         -1.41739        4.81306        0.23292
H         -2.65376        4.42381       -0.95764
H         -4.89726        3.79640       -0.24282
H         -5.25877        4.42867        1.35027
H         -4.21008        0.81991       -0.11902
C         -5.14410        2.22954        1.25556
C         -4.03037       -0.00777        1.87056
H         -2.98701        4.19162        2.08341
H         -5.32549        2.21516        2.33911
H         -6.10819        1.97168        0.79135
H         -4.96938       -0.56613        1.87181
H         -3.22681       -0.69710        1.60184
H         -3.84368        0.33091        2.89132
C         -1.14001       -4.02443        0.11616
C         -1.19377       -3.40658        1.39252
C         -0.80825       -2.08041        1.49668
C         -0.46065       -1.35812        0.38550
C         -0.52235       -1.91899       -0.86224
C         -0.88988       -3.24061       -1.03877
O         -1.29608       -5.43128       -0.00036
C         -1.62373       -4.16282        2.65935
H         -0.76121       -1.59483        2.45513
H         -0.26528       -1.29894       -1.70312
C         -0.97094       -3.80491       -2.46518
C          4.42339        0.81902       -0.74194
C          3.83836       -0.47204       -0.69665
C          2.51623       -0.57663       -0.30117
C          1.80608        0.52381        0.10091
C          2.39481        1.75947        0.15367
C          3.71700        1.93486       -0.22269
O          5.69826        0.99938       -1.34143
C          4.59053       -1.74483       -1.11558
H          2.01255       -1.52684       -0.32307
H          1.79692        2.59319        0.48024
C          4.34750        3.33112       -0.10269
C         -0.38889       -4.80101        3.31314
C         -2.27798       -3.20007        3.67645
C         -2.66944       -5.24413        2.33147
C          0.40795       -4.34454       -2.87499
C         -2.02973       -4.91773       -2.56374
C         -1.38458       -2.69959       -3.46427
C         -0.07684       -6.15742        0.09424
H         -0.66118       -5.33636        4.22239
H          0.09343       -5.50585        2.64015
H          0.34454       -4.03916        3.57641
H         -3.09675       -2.64810        3.21634
H         -2.68335       -3.75162        4.52443
H         -1.56145       -2.48357        4.07512
H         -3.52908       -4.80549        1.82585
H         -2.25641       -6.01162        1.68165
H         -3.02291       -5.73526        3.23775
H          0.38552       -4.74490       -3.88817
H          1.15587       -3.55282       -2.84154
H          0.73618       -5.13733       -2.20698
H         -2.13056       -5.27309       -3.58893
H         -1.76738       -5.77155       -1.94418
H         -3.00171       -4.55225       -2.23410
H         -0.60588       -1.94734       -3.58033
H         -1.57102       -3.12053       -4.45190
H         -2.29578       -2.20071       -3.13539
H         -0.13580       -6.86403        0.92193
H          0.08574       -6.72174       -0.82384
H          0.76030       -5.47698        0.25569
C          5.64767        1.27600       -2.73556
C          4.05207       -2.97560       -0.34946
C          4.38717       -1.98067       -2.62003
C          6.09107       -1.63484       -0.79101
C          5.85740        3.23739        0.18287
C          4.10035        4.11251       -1.40214
C          3.71684        4.11494        1.07096
H          4.05883       -2.79673        0.72542
H          3.03550       -3.22615       -0.64943
H          4.66743       -3.85319       -0.54638
H          4.77691       -1.15185       -3.20575
H          4.89221       -2.88992       -2.94504
H          3.32752       -2.08017       -2.85381
H          6.56197       -0.83455       -1.35628
H          6.24015       -1.42764        0.26814
H          6.61318       -2.56033       -1.03261
H          6.38912        2.76682       -0.64021
H          6.29020        4.22636        0.33159
H          6.04213        2.64774        1.08016
H          3.03236        4.20706       -1.59719
H          4.52313        5.11501       -1.34179
H          4.54801        3.60996       -2.25601
H          4.24785        5.05143        1.24024
H          3.75992        3.53449        1.99220
H          2.67657        4.36945        0.87376
H          6.11779        2.23876       -2.93512
H          6.19828        0.50981       -3.28104
H          4.61327        1.29698       -3.08122
