105
-153.05924662
Cl         0.60658        3.70628        1.44771
Pd        -0.12147        1.97384        0.20850
P         -0.74083        0.23165       -1.29364
N          0.07587       -1.19658       -1.95852
C          0.16273       -2.52301       -1.54800
C         -0.14506       -2.98541       -0.23989
C          0.20599       -4.30277        0.12872
C          0.11375       -4.70665        1.58346
C          0.95301       -5.94436        1.93288
C          0.69985       -7.06646        0.92184
C          1.07331       -6.61983       -0.50118
C          0.70770       -5.19086       -0.82538
C          0.91362       -4.74172       -2.12324
C          0.66960       -3.43809       -2.47023
H          0.88546       -3.09948       -3.46884
H          1.30665       -5.42767       -2.85468
H          2.15283       -6.74126       -0.65141
H          1.24897       -7.97585        1.20405
H          2.01709       -5.67703        1.92024
H          0.42211       -3.85635        2.20516
C         -0.74146       -2.10826        0.80258
C          0.08020       -1.12079        1.40487
C         -0.37994       -0.44424        2.53455
C         -1.62430       -0.71490        3.04235
C         -2.46294       -1.65031        2.44227
C         -3.81867       -1.89788        3.04906
C         -4.40871       -3.25783        2.64860
C         -4.36234       -3.43210        1.12761
C         -2.92446       -3.33202        0.58777
C         -2.03203       -2.34459        1.30828
H         -2.45969       -4.32234        0.61588
H         -4.98135       -2.65628        0.66302
H         -5.43514       -3.36871        3.02623
H         -4.49537       -1.09308        2.73896
H         -1.97437       -0.18390        3.91120
H          0.24327        0.30604        2.98542
N          1.24126       -0.75999        0.72717
P          1.79850        0.85440        0.95458
C          2.91318        1.31511       -0.36531
C          3.14640        2.64730       -0.61000
C          3.92191        3.02003       -1.69227
C          4.45325        2.05937       -2.54280
C          4.20880        0.71867       -2.27490
C          3.43397        0.34758       -1.19085
H          3.22242       -0.69090       -0.99336
H          4.62240       -0.03281       -2.92553
C          5.29334        2.45840       -3.70567
H          4.10638        4.06181       -1.89124
H          2.68178        3.38584        0.02423
C          2.58664        0.94279        2.56156
C          3.27993       -0.16095        2.99782
C          3.89762       -0.13962        4.23612
C          3.81697        0.98575        5.04572
C          3.11755        2.09245        4.58300
C          2.50224        2.06714        3.34626
H          1.94774        2.91709        2.98719
H          3.05766        2.97403        5.19813
C          4.50140        1.01910        6.36795
H          4.44574       -0.99955        4.58124
H          3.32447       -1.03667        2.36913
H          1.09173       -0.86813       -0.27547
H          0.26875       -1.00453       -2.93374
C         -0.60346        1.40629       -2.65144
C         -1.70528        1.92975       -3.28437
C         -1.53816        2.83990       -4.31156
C         -0.26681        3.22585       -4.71562
C          0.83290        2.69154       -4.05844
C          0.66276        1.78132       -3.03154
H          1.51476        1.37598       -2.51072
H          1.82335        2.99805       -4.34829
C         -0.08760        4.23108       -5.79937
H         -2.39783        3.26289       -4.80265
H         -2.69146        1.63729       -2.96392
C         -2.47962       -0.17093       -1.12912
C         -3.04614       -0.94386       -2.11454
C         -4.39935       -1.23060       -2.07358
C         -5.19171       -0.74573       -1.04219
C         -4.60091        0.03402       -0.05723
C         -3.24823        0.31561       -0.09885
H         -2.79071        0.92161        0.66599
H         -5.20877        0.42612        0.74005
C         -6.65337       -1.02887       -1.01287
H         -4.84867       -1.83022       -2.84657
H         -2.42557       -1.31637       -2.91451
Cl        -2.02071        3.06164       -0.29178
H          0.60032       -7.27823       -1.24101
H          0.74548       -6.28504        2.95718
H         -0.36148       -7.34405        0.95019
H         -0.93201       -4.89474        1.84639
H         -4.82328       -4.38513        0.83246
H         -2.94108       -3.06252       -0.47543
H         -3.74566       -1.81832        4.14125
H         -3.82946       -4.05955        3.12383
H          5.00343        3.44036       -4.08232
H          6.34668        2.50246       -3.42571
H          5.19209        1.74704       -4.52656
H          3.98258        1.68020        7.06353
H          4.53538        0.02627        6.81875
H          5.52655        1.37722        6.26435
H         -0.08450        5.24274       -5.39144
H          0.85492        4.07791       -6.32692
H         -0.89199        4.16632       -6.53341
H         -7.04477       -0.98107        0.00435
H         -7.19992       -0.30400       -1.61755
H         -6.86863       -2.02441       -1.40377
