59
-75.79957248
Cl         1.62807        0.72671        2.35700
P          1.62379        0.05516       -0.81659
P         -1.51165       -0.35650       -0.73196
C          0.61959        0.12668       -2.36674
H          0.28395        1.15911       -2.49683
H          1.26285       -0.12004       -3.21724
C         -0.56063       -0.79545       -2.25114
H         -0.23585       -1.83507       -2.16474
H         -1.22762       -0.73046       -3.11622
C          2.83774       -1.34519       -0.84274
H          2.78102       -1.78316       -1.84650
C          2.79017        1.48539       -0.66734
H          2.77452        1.78496        0.38764
C         -2.84371       -1.56871       -0.30115
H         -2.74956       -1.75768        0.77513
C         -2.53031        1.16582       -0.98996
H         -2.55328        1.34621       -2.07151
C          4.19455       -0.64526       -0.62724
H          4.46932       -0.73168        0.43311
H          4.98857       -1.17082       -1.17908
C          4.14792        0.85604       -1.02049
H          4.31619        0.95875       -2.10151
H          4.96618        1.41307       -0.53880
C         -4.13670       -0.78705       -0.59696
H         -4.47320       -1.03150       -1.61390
H         -4.94657       -1.11968        0.07007
C         -3.92089        0.74714       -0.48000
H         -4.01582        1.04813        0.57246
H         -4.70898        1.29661       -1.01710
C          2.53301       -2.40153        0.21564
H          2.46889       -1.90912        1.19512
H          3.39052       -3.08472        0.29221
C          2.38871        2.66278       -1.54756
H          2.39097        2.33906       -2.59660
H          1.34778        2.93698       -1.32920
C         -2.70684       -2.87418       -1.07571
H         -2.76619       -2.65640       -2.15022
H         -1.70026       -3.28433       -0.91890
C         -1.93035        2.36461       -0.26503
H         -1.90713        2.15113        0.81204
H         -0.87753        2.47331       -0.55888
C          1.26584       -3.19537       -0.05929
H          1.09214       -3.96438        0.69687
H          1.31331       -3.69304       -1.02968
H          0.38769       -2.55006       -0.06925
C          3.29279        3.87325       -1.36858
H          3.28973        4.21646       -0.33230
H          2.98212        4.71319       -1.99420
H          4.32698        3.63823       -1.62643
C         -3.75401       -3.90755       -0.68764
H         -3.63350       -4.84151       -1.24134
H         -4.76408       -3.54136       -0.87978
H         -3.69565       -4.14608        0.37604
C         -2.68314        3.65974       -0.52886
H         -2.23266        4.50826       -0.00885
H         -2.69736        3.89679       -1.59436
H         -3.72173        3.58872       -0.20092
Cl        -1.53129       -0.25378        2.43743
Pd         0.08617        0.00005        0.90437
