111
-148.55395490
P         -2.42484        2.38840       -0.12150
P         -0.02098        0.38050        0.45505
C         -1.76802        2.22214        1.55726
C         -0.75851        1.31898        1.80896
C         -2.58689        4.16231       -0.61443
C         -1.83329        4.42105       -1.90076
C         -2.29693        2.97059        2.58921
H         -3.07230        3.68989        2.38152
C         -1.82830        2.79366        3.87958
H         -2.24242        3.37603        4.68640
C         -0.83848        1.86438        4.13519
H         -0.48093        1.71781        5.14111
C         -0.30380        1.12320        3.09670
H          0.46156        0.38565        3.28235
Pd        -1.24256        0.92048       -1.45416
Cl        -2.66943        1.38707       -3.11885
Cl        -0.12171       -0.73480       -2.48638
C         -4.11302        4.35963       -0.73045
C         -4.18799        1.83784       -0.28187
H         -2.23287        3.80610       -2.70927
H         -1.91319        5.46609       -2.20989
H         -0.77285        4.17831       -1.79636
H         -4.32837        5.09583       -1.51853
H         -4.50575        4.79814        0.19866
H         -4.17757        0.93636       -0.90984
C         -4.84918        3.02066       -1.01795
C         -4.80736        1.53384        1.06602
H         -2.16789        4.76121        0.20566
H         -5.90817        3.08911       -0.72908
H         -4.84801        2.83165       -2.10158
H         -4.21757        0.79975        1.61940
H         -4.86459        2.43616        1.67651
H         -5.82311        1.14503        0.96216
C         -1.05246       -4.03716        0.78030
C          0.29677       -3.62672        0.93471
C          0.58824       -2.27768        0.82517
C         -0.40677       -1.35360        0.64745
C         -1.72265       -1.73220        0.60182
C         -2.08345       -3.06642        0.69454
O         -1.36708       -5.41893        0.68277
C          1.44371       -4.61964        1.18112
H          1.60518       -1.92904        0.86296
H         -2.46754       -0.96550        0.47323
C         -3.57302       -3.44078        0.64906
C          4.47776        1.05382       -0.00057
C          3.76831        0.25464       -0.93422
C          2.40109        0.11979       -0.77054
C          1.74688        0.66744        0.30143
C          2.44967        1.34223        1.26678
C          3.82067        1.51565        1.17057
O          5.81052        1.45420       -0.27608
C          4.42440       -0.49005       -2.10906
H          1.81720       -0.41185       -1.50088
H          1.91369        1.74646        2.10645
C          4.54869        2.17407        2.35536
C          1.99418       -5.10742       -0.16758
C          2.59375       -3.94406        1.96317
C          0.96794       -5.81489        2.02652
C         -4.44295       -2.29966        1.22316
C         -3.99009       -3.67911       -0.81046
C         -3.85678       -4.69271        1.49839
C         -1.34192       -5.92988       -0.64420
H          2.82836       -5.79369       -0.02395
H          1.23048       -5.62378       -0.74330
H          2.34625       -4.26763       -0.76557
H          3.09821       -3.18641        1.36519
H          2.22041       -3.47271        2.87196
H          3.34747       -4.67635        2.25172
H          0.54227       -5.47251        2.96916
H          0.20619       -6.39074        1.50698
H          1.79396       -6.48889        2.25210
H         -4.43696       -1.42712        0.57202
H         -5.48116       -2.61593        1.32174
H         -4.08928       -1.99891        2.20904
H         -3.81691       -2.78575       -1.41027
H         -3.42107       -4.49045       -1.25697
H         -5.04778       -3.93215       -0.87837
H         -3.52741       -4.54154        2.52583
H         -4.92185       -4.92263        1.51376
H         -3.33825       -5.56437        1.10731
H         -2.32408       -6.32495       -0.90297
H         -1.06743       -5.14396       -1.34908
H         -0.62210       -6.74568       -0.70818
C          5.87876        2.66704       -1.00743
C          3.91264       -1.94745       -2.13871
C          4.04569        0.20438       -3.42770
C          5.95617       -0.55439       -1.98280
C          6.07102        1.95667        2.30044
C          4.24495        3.68101        2.37008
C          4.05239        1.54537        3.67670
H          4.41052       -2.51841       -2.92193
H          4.10796       -2.44092       -1.18717
H          2.84240       -1.99778       -2.33172
H          4.48125       -0.31515       -4.28072
H          2.96461        0.22185       -3.56231
H          4.39920        1.23370       -3.44495
H          6.24491       -0.98069       -1.02271
H          6.38994       -1.16789       -2.77213
H          6.39981        0.43572       -2.05485
H          6.55622        2.34524        3.19551
H          6.30495        0.89568        2.21987
H          6.51066        2.46101        1.44320
H          4.73042        4.16763        3.21565
H          4.59657        4.16207        1.45938
H          3.17330        3.86142        2.44904
H          3.00071        1.76023        3.85839
H          4.61323        1.93396        4.52637
H          4.17760        0.46304        3.65812
H          5.35443        2.56146       -1.95598
H          5.41675        3.47263       -0.43914
H          6.92343        2.91374       -1.19801
