58
-89.86557148
P          1.67695        0.36361        0.81864
C          2.96316        1.57925        0.48256
C          2.71833        2.65853       -0.33599
C          3.71046        3.59594       -0.55866
C          4.94139        3.45329        0.04992
C          5.17947        2.37969        0.88459
C          4.18454        1.44377        1.10476
H          4.35349        0.61044        1.76861
H          1.75366        2.76258       -0.80537
C          2.21657       -1.31212        0.44242
C          3.49269       -1.57636       -0.00054
C          3.86434       -2.87500       -0.29783
C          2.95246       -3.90261       -0.15708
C          1.66867       -3.63288        0.27241
C          1.30362       -2.33316        0.56986
H          0.29224       -2.10431        0.85568
H          4.18980       -0.76608       -0.13119
C          1.30735        0.52957        2.61254
C          0.05205       -0.17384        3.09368
C         -1.23258        0.45463        2.57677
P         -1.65864        0.00437        0.84635
C         -1.99749       -1.75583        0.68589
C         -2.07883       -2.28948       -0.58004
C         -2.29986       -3.64299       -0.75036
C         -2.44224       -4.45741        0.35495
C         -2.37117       -3.91930        1.62468
C         -2.15058       -2.56389        1.79028
H         -2.10067       -2.13776        2.77863
H         -1.96700       -1.63684       -1.43051
C         -3.10891        0.96723        0.41129
C         -4.32390        0.34508        0.23792
C         -5.43496        1.09220       -0.10933
C         -5.31875        2.45755       -0.28148
C         -4.09653        3.07683       -0.10796
C         -2.98687        2.32706        0.23986
H         -2.02377        2.79500        0.37153
H         -4.39647       -0.72255        0.36859
Pd        -0.03946        0.47791       -0.74557
Cl         1.50338        0.74106       -2.36049
Cl        -1.66479        0.43805       -2.30668
H         -2.09510        0.15927        3.17925
H         -1.17646        1.54353        2.62837
H          0.08921       -1.23424        2.81663
H          0.03966       -0.16819        4.19487
H          2.19287        0.15853        3.13434
H          1.24673        1.59977        2.82038
H          3.52228        4.43494       -1.20825
H          6.13742        2.27128        1.36616
H          4.86313       -3.08301       -0.64495
H          0.94738       -4.42814        0.36450
H         -2.35843       -4.05932       -1.74252
H         -2.48701       -4.55489        2.48722
H         -6.38768        0.60833       -0.24883
H         -4.00512        4.14153       -0.24686
H          5.71592        4.18236       -0.12421
H          3.24015       -4.91434       -0.39231
H         -2.61277       -5.51390        0.22657
H         -6.18304        3.04060       -0.55490
