105
-153.05965211
Cl         2.87295        2.31000        0.26553
Pd         0.85086        1.73070       -0.54430
P         -1.31112        1.23930       -1.27254
N         -1.37963       -0.38448       -0.70783
C         -0.40689       -1.27039       -1.15716
C         -0.07451       -2.34493       -0.29552
C          1.02789       -3.16438       -0.59611
C          1.39990       -4.26695        0.37150
C          2.70073       -5.01977        0.04017
C          2.89468       -5.17523       -1.47114
C          2.92699       -3.79840       -2.14995
C          1.75597       -2.93281       -1.76663
C          1.39441       -1.88750       -2.61232
C          0.33734       -1.06608       -2.31773
H          0.08467       -0.24642       -2.96467
H          1.96971       -1.71882       -3.50675
H          3.85294       -3.27502       -1.88428
H          3.80732       -5.74606       -1.69408
H          3.55468       -4.47120        0.45285
H          1.46228       -3.83296        1.37672
C         -1.01185       -2.67391        0.81180
C         -1.15182       -1.86199        1.97181
C         -2.00726       -2.30045        2.98252
C         -2.74177       -3.45041        2.85058
C         -2.69886       -4.20079        1.68300
C         -3.60035       -5.40812        1.58026
C         -3.40770       -6.24141        0.30257
C         -3.16141       -5.33806       -0.90933
C         -1.90035       -4.48758       -0.69776
C         -1.85589       -3.79455        0.64622
H         -1.01549       -5.12089       -0.81489
H         -4.02557       -4.67706       -1.05147
H         -4.27160       -6.89849        0.12912
H         -4.64071       -5.06654        1.64088
H         -3.39676       -3.76358        3.64614
H         -2.10063       -1.70500        3.87433
N         -0.56694       -0.60944        2.14847
P          0.75582        0.26699        1.34611
C          2.20488       -0.79194        1.33789
C          3.15145       -0.73259        0.34275
C          4.29168       -1.50900        0.42995
C          4.49236       -2.35271        1.51349
C          3.52597       -2.40081        2.50896
C          2.38368       -1.62509        2.41686
H          1.62861       -1.65922        3.18657
H          3.67365       -3.04664        3.35752
C          5.73849       -3.16089        1.62168
H          5.04117       -1.45474       -0.34100
H          3.00631       -0.06845       -0.49305
C          1.11217        1.59982        2.51270
C          2.20828        1.53523        3.34005
C          2.47352        2.56871        4.21915
C          1.63839        3.67534        4.28147
C          0.54143        3.72868        3.43310
C          0.28023        2.69281        2.55589
H         -0.56814        2.74179        1.89615
H         -0.10512        4.58921        3.45905
C          1.94189        4.80234        5.20614
H          3.33799        2.52489        4.85945
H          2.86577        0.68394        3.28739
H         -0.66377       -0.19194        3.06643
H         -1.33401       -0.33419        0.30782
C         -1.86531        1.23733       -2.97673
C         -1.27729        2.03550       -3.92763
C         -1.73224        2.00300       -5.23164
C         -2.77718        1.16328       -5.59350
C         -3.36425        0.36892       -4.61741
C         -2.90585        0.40440       -3.31207
H         -3.34709       -0.21960       -2.55037
H         -4.18196       -0.27812       -4.88523
C         -3.28502        1.14482       -6.99333
H         -1.27700        2.63096       -5.97835
H         -0.45932        2.67504       -3.64303
C         -2.35385        2.28435       -0.26123
C         -2.88660        3.43740       -0.78606
C         -3.65798        4.26100        0.01390
C         -3.89985        3.93271        1.34141
C         -3.34047        2.77054        1.85490
C         -2.57077        1.94790        1.05453
H         -2.10502        1.06849        1.46860
H         -3.50309        2.51927        2.88920
C         -4.70152        4.83587        2.21259
H         -4.07280        5.16943       -0.38830
H         -2.68914        3.69183       -1.81534
Cl         1.00690        3.29363       -2.14747
H          2.95278       -3.90942       -3.24152
H          2.71989       -6.00041        0.53603
H          2.06708       -5.76518       -1.88485
H          0.57610       -4.98463        0.43108
H         -3.08709       -5.93089       -1.83201
H         -1.82234       -3.72922       -1.48734
H         -3.44743       -6.03514        2.46796
H         -2.54950       -6.91315        0.43121
H          6.53507       -2.58201        2.09088
H          5.57702       -4.05802        2.22105
H          6.08784       -3.47823        0.63803
H          2.64796        5.49721        4.74957
H          1.03877        5.35892        5.46028
H          2.38008        4.43962        6.13700
H         -2.48791        1.36685       -7.70423
H         -3.69454        0.16706       -7.25089
H         -4.07334        1.88647       -7.12904
H         -4.05918        5.56345        2.71061
H         -5.44537        5.38435        1.63303
H         -5.23147        4.27235        2.98180
