45
-71.81500246
C          0.34589        0.61426        2.47841
P          0.96477        0.62386        0.76185
P         -1.62481        0.25225       -1.05986
C         -2.39796       -0.09246       -2.67451
Cl         1.73377       -2.36979        0.52417
H         -0.74017        0.63527        2.47846
H         -2.77324       -1.11171       -2.69124
Cl        -1.09695       -2.85381       -1.32114
C          0.29697        2.02055       -0.16828
C         -0.80770        1.86072       -0.97780
C         -1.31739        2.93699       -1.67446
C         -0.70787        4.17499       -1.56946
C          0.40321        4.33310       -0.76396
C          0.90635        3.25340       -0.05965
H         -2.19229        2.80549       -2.29024
H         -1.10283        5.01658       -2.11438
H          0.87778        5.29707       -0.68198
H          1.77232        3.36144        0.57383
Pd         0.05260       -1.17992       -0.36803
H         -1.66557        0.02679       -3.46783
H          0.71513        1.48557        3.01170
H         -3.22503        0.59035       -2.84653
C         -4.48360       -0.20995        2.44204
C         -4.01398        1.04343        2.10015
C         -3.15307        1.18782        1.02714
C         -2.77463        0.08024        0.30410
C         -3.23108       -1.17113        0.64693
C         -4.09213       -1.31933        1.71832
H         -5.15410       -0.32308        3.27825
H         -4.31608        1.90772        2.66848
H         -2.77131        2.15777        0.75207
H         -2.88583       -2.02560        0.08717
H         -4.45000       -2.29855        1.99086
C          5.49540        0.49536        0.37377
C          4.69859        0.63504       -0.74522
C          3.32230        0.67866       -0.60922
C          2.75474        0.58536        0.64121
C          3.54459        0.44219        1.75917
C          4.92073        0.39828        1.62574
H          6.56749        0.45846        0.26950
H          5.14603        0.70647       -1.72294
H          2.68500        0.78308       -1.47364
H          3.08526        0.35902        2.73064
H          5.54285        0.28396        2.49823
H          0.67903       -0.28527        2.98818
