59
-75.80081371
Cl         1.58327        0.44991        2.33075
P          1.51167       -0.04411       -0.86176
P         -1.67293       -0.14381       -0.78271
C          0.49361        0.15923       -2.39011
H          0.21572        1.21273       -2.48065
H          1.10333       -0.09760       -3.26225
C         -0.73051       -0.70131       -2.26853
H         -0.45636       -1.75164       -2.14378
H         -1.38174       -0.62948       -3.14533
C          2.72312       -1.42689       -1.11132
H          2.73324       -1.57460       -2.19988
C          2.69919        1.35531       -0.59145
H          2.63318        1.61115        0.47279
C         -3.07113       -1.26792       -0.31024
H         -3.04367       -1.33431        0.78463
C         -2.64895        1.35583       -1.25168
H         -2.16422        1.81543       -2.12196
C          4.06200       -0.80693       -0.67569
H          4.23105       -1.01297        0.38835
H          4.89792       -1.28888       -1.20527
C          4.07053        0.72941       -0.90206
H          4.32875        0.94287       -1.94827
H          4.85677        1.20962       -0.30003
C         -4.33916       -0.51109       -0.76835
H         -4.99129       -1.19763       -1.32649
H         -4.92720       -0.20548        0.10936
C         -4.01054        0.73902       -1.63079
H         -4.80273        1.49639       -1.53385
H         -4.00153        0.45533       -2.69418
C          2.34317       -2.73955       -0.42437
H          3.03490       -3.52620       -0.75665
H          1.35780       -3.05226       -0.79396
C          2.35665        2.57507       -1.43801
H          2.41270        2.29778       -2.49888
H          1.30795        2.85138       -1.26465
C         -2.91468       -2.66514       -0.89764
H         -3.86225       -3.21198       -0.79308
H         -2.74946       -2.57903       -1.97939
C         -2.72335        2.35650       -0.10100
H         -3.56482        3.04205       -0.27392
H         -2.97694        1.81344        0.81933
C          2.32826       -2.69669        1.09668
H          3.32401       -2.52900        1.50918
H          1.95978       -3.63138        1.52601
H          1.68953       -1.89798        1.47007
C          3.25988        3.76618       -1.15524
H          2.99346        4.63572       -1.76049
H          4.30508        3.53041       -1.36310
H          3.20006        4.06464       -0.10687
C         -1.79133       -3.45169       -0.23754
H         -2.00151       -3.62644        0.81945
H         -0.84753       -2.90812       -0.28180
H         -1.63693       -4.42524       -0.70813
C         -1.44337        3.15817        0.08722
H         -1.51783        3.85765        0.92285
H         -0.58867        2.51111        0.28218
H         -1.20665        3.73851       -0.80661
Cl        -1.64072       -0.25370        2.41458
Pd        -0.04540       -0.00823        0.85881
