111
-148.55301437
P         -2.68600        2.12648        0.51079
P          0.06759        0.56743        0.36091
C         -1.55643        2.14880        1.93061
C         -0.34589        1.49558        1.84807
C         -3.61833        3.71812        0.36360
C         -3.45955        4.31422       -1.01769
C         -1.90680        2.80075        3.09576
H         -2.85947        3.30038        3.16076
C         -1.03919        2.79815        4.17451
H         -1.31270        3.30631        5.08479
C          0.17446        2.14325        4.08746
H          0.84841        2.13895        4.92827
C          0.52111        1.48660        2.92030
H          1.45859        0.95912        2.83832
Pd        -1.44499        1.28027       -1.24127
Cl        -3.19043        1.51597       -2.62622
Cl        -0.05194        0.46016       -2.80702
C         -5.06541        3.30497        0.70553
C         -4.08657        0.93450        0.70890
H         -3.86302        3.64022       -1.77483
H         -3.98962        5.26539       -1.10804
H         -2.40787        4.48777       -1.25791
H         -5.76944        3.93923        0.14727
H         -5.26972        3.50115        1.76839
H         -3.94998        0.15356       -0.05197
C         -5.32434        1.80205        0.40165
C         -4.08435        0.32945        2.09542
H         -3.20877        4.39962        1.12128
H         -6.18517        1.43205        0.97755
H         -5.60387        1.68933       -0.65630
H         -3.14317       -0.18627        2.29755
H         -4.20341        1.10485        2.85447
H         -4.89894       -0.38758        2.22279
C         -0.87296       -3.86268        0.80915
C         -0.95077       -3.02221        1.95230
C         -0.66748       -1.67520        1.79632
C         -0.39836       -1.15021        0.55965
C         -0.45011       -1.93412       -0.56172
C         -0.72826       -3.28671       -0.48083
O         -0.84943       -5.27293        0.96122
C         -1.32245       -3.52291        3.35818
H         -0.63000       -1.02256        2.65119
H         -0.25358       -1.46932       -1.51301
C         -0.86405       -4.06791       -1.79779
C          4.48758        0.69559       -0.72530
C          3.62091        1.70613       -1.21623
C          2.28996        1.67644       -0.83195
C          1.80261        0.65227       -0.06401
C          2.61308       -0.38208        0.32607
C          3.95333       -0.41197       -0.01925
O          5.89083        0.80610       -0.91524
C          4.10352        2.82039       -2.15843
H          1.60733        2.44829       -1.14278
H          2.17600       -1.18018        0.90141
C          4.79797       -1.63336        0.37635
C         -0.06392       -3.54304        4.24137
C         -2.36445       -2.57148        3.98619
C         -1.95569       -4.92500        3.33168
C          0.52529       -4.24005       -2.43441
C         -1.51377       -5.44742       -1.59549
C         -1.77019       -3.27771       -2.76876
C          0.46355       -5.78488        1.12003
H         -0.30257       -3.87439        5.25166
H          0.68996       -4.21584        3.83717
H          0.37964       -2.55013        4.30985
H         -3.24271       -2.48900        3.34672
H         -2.69155       -2.94115        4.95769
H         -1.96081       -1.57208        4.13973
H         -2.80849       -4.94854        2.65412
H         -1.24233       -5.67378        2.99573
H         -2.30006       -5.21952        4.32276
H          0.45513       -4.76776       -3.38513
H          0.99038       -3.27259       -2.62142
H          1.18903       -4.80699       -1.78447
H         -0.88008       -6.09766       -0.99709
H         -2.47039       -5.35007       -1.08338
H         -1.68733       -5.94374       -2.54999
H         -1.32405       -2.32770       -3.05801
H         -1.94729       -3.84381       -3.68274
H         -2.73604       -3.06912       -2.30963
H          0.91871       -5.37505        2.02009
H          0.41859       -6.87105        1.20193
H          1.07773       -5.51323        0.26307
C          6.56279        1.50557        0.12435
C          5.24147        2.32174       -3.06785
C          2.95660        3.28129       -3.08711
C          4.57779        4.02189       -1.32768
C          5.41783       -1.39608        1.76144
C          3.92081       -2.90619        0.43823
C          5.90327       -1.90001       -0.66131
H          5.53689        3.08901       -3.78302
H          6.12273        2.05417       -2.49012
H          4.92742        1.44028       -3.62588
H          3.32594        3.96989       -3.84665
H          2.50575        2.43025       -3.59708
H          2.17583        3.80290       -2.53573
H          5.40202        3.74767       -0.67354
H          4.91502        4.83331       -1.97216
H          3.76992        4.40077       -0.70212
H          4.64100       -1.23536        2.50869
H          6.01522       -2.25224        2.07385
H          6.06161       -0.51969        1.75977
H          3.36102       -3.03695       -0.48760
H          4.53605       -3.79356        0.58521
H          3.21214       -2.86954        1.26442
H          6.61158       -1.07638       -0.70635
H          5.47399       -2.02612       -1.65470
H          6.46226       -2.80260       -0.41572
H          7.30899        0.85463        0.57959
H          7.07550        2.37298       -0.29102
H          5.85222        1.83216        0.88468
