171
-217.84039935
P         -1.49165        0.22615       -0.39203
P          1.65755       -0.71797        0.35427
C         -0.48894        1.05296       -1.63981
C          1.01596       -1.70402       -1.01691
C          0.41203        0.30020       -2.38252
C          1.22237        0.94692       -3.33530
C          1.06154        2.30778       -3.54065
C          0.14533        3.03499       -2.80934
C         -0.62757        2.40169       -1.85636
C          1.00921       -3.06047       -0.79136
C          0.47836       -3.92140       -1.73240
C         -0.05878       -3.41018       -2.89403
C         -0.07758       -2.04650       -3.13344
C          0.47753       -1.17013       -2.18186
Cl         0.65752       -0.96053        3.42732
Cl        -2.32958       -1.45669        2.35041
C         -0.70468       -1.54316       -4.38645
C          2.22515        0.18686       -4.13110
H          0.03535        4.09383       -2.97774
H         -1.34809        2.96019       -1.28423
H          1.41302       -3.44330        0.13450
H          0.47643       -4.98426       -1.55395
H          1.65828        2.79721       -4.29127
H         -0.48445       -4.07354       -3.62804
C         -4.21125       -2.70774       -2.51540
C         -3.56396       -3.11911       -1.35729
C         -2.75371       -2.19939       -0.70586
C         -2.58160       -0.93686       -1.21361
C         -3.20794       -0.55533       -2.37509
C         -4.04738       -1.43527       -3.04855
H         -4.87311       -3.39586       -3.00775
H         -2.26119       -2.45686        0.21383
H         -3.01895        0.42934       -2.76535
C         -4.10142        3.36204        1.63387
C         -3.21298        2.64801        2.42584
C         -2.41258        1.69712        1.80834
C         -2.51607        1.45344        0.45874
C         -3.42361        2.15343       -0.29923
C         -4.22766        3.13234        0.27085
H         -4.71435        4.11627        2.09221
H         -1.70968        1.13594        2.39387
H         -3.49531        1.93735       -1.34992
C          5.53704       -2.65829        1.67052
C          4.63809       -2.25646        2.65180
C          3.44510       -1.68178        2.23925
C          3.16493       -1.52449        0.90682
C          4.06091       -1.93270       -0.05090
C          5.27212       -2.50767        0.31460
H          6.47132       -3.10013        1.96180
H          2.71708       -1.36210        2.96215
H          3.80278       -1.80077       -1.08801
C          2.88585        3.60561       -0.24771
C          3.60414        2.59484       -0.87322
C          3.17052        1.28724       -0.69607
C          2.07121        1.01247        0.07968
C          1.38444        2.02539        0.70831
C          1.78262        3.34765        0.55792
H          3.21391        4.61908       -0.38149
H          3.69964        0.46781       -1.14955
H          0.54139        1.78641        1.33167
Pd        -0.39770       -0.73903        1.46064
C         -5.24556       -4.74910       -0.46609
C         -3.76337       -4.54524       -0.82678
C         -2.91127       -4.80603        0.43159
C         -3.34598       -5.55486       -1.91196
H         -5.41674       -5.74957       -0.06920
H         -5.55962       -4.02785        0.28819
H         -5.88589       -4.62143       -1.33814
H         -1.85075       -4.66700        0.22235
H         -3.19348       -4.13595        1.24334
H         -3.04705       -5.82748        0.78632
H         -3.95210       -5.44573       -2.81042
H         -2.30321       -5.40836       -2.19196
H         -3.45888       -6.57880       -1.55623
C         -4.71977       -2.08041       -5.39595
C         -4.83822       -1.00885       -4.29439
C         -4.31785        0.32547       -4.86573
C         -6.31596       -0.83596       -3.90201
H         -5.24830       -1.76920       -6.29692
H         -3.67767       -2.25101       -5.66280
H         -5.14616       -3.03101       -5.07917
H         -4.85308        0.59069       -5.77737
H         -4.45868        1.14119       -4.15740
H         -3.25795        0.25981       -5.11014
H         -6.73079       -1.76907       -3.52167
H         -6.42161       -0.08156       -3.12247
H         -6.91469       -0.52480       -4.75786
C         -2.14296        1.97356        4.63661
C         -3.15227        2.90722        3.93806
C         -4.54303        2.65653        4.55017
C         -2.72961        4.36538        4.18916
H         -2.12191        2.16026        5.71005
H         -2.40966        0.92715        4.48912
H         -1.13371        2.12749        4.25738
H         -4.86818        1.63441        4.35703
H         -4.52745        2.80791        5.62933
H         -5.28903        3.33014        4.13031
H         -1.75371        4.56398        3.74873
H         -3.44160        5.06479        3.75252
H         -2.66661        4.57524        5.25674
C         -4.78923        5.44149       -0.51458
C         -5.21511        3.96289       -0.56034
C         -6.63220        3.80885        0.02231
C         -5.24407        3.50580       -2.03250
H         -4.79704        5.82308        0.50586
H         -3.78035        5.56319       -0.90887
H         -5.46157        6.06035       -1.10851
H         -6.68314        4.17504        1.04688
H         -7.35878        4.36822       -0.56678
H         -6.93440        2.76172        0.02534
H         -5.54056        2.45999       -2.11108
H         -5.95848        4.09537       -2.60688
H         -4.26740        3.62570       -2.50121
C          6.28015       -3.07902        4.41582
C          4.91256       -2.41992        4.15340
C          3.81548       -3.30432        4.77525
C          4.90031       -1.03345        4.82374
H          6.32886       -4.07227        3.96988
H          7.09113       -2.47579        4.00815
H          6.45721       -3.18905        5.48566
H          3.99222       -3.45470        5.84004
H          2.83083       -2.85224        4.66212
H          3.79132       -4.28224        4.29497
H          5.65379       -0.38401        4.37855
H          3.93160       -0.54807        4.71062
H          5.11012       -1.11361        5.89016
C          7.61112       -2.16168       -0.51812
C          6.30798       -2.95487       -0.72651
C          5.81143       -2.70674       -2.16504
C          6.58169       -4.46068       -0.55893
H          8.36151       -2.44289       -1.25680
H          7.42920       -1.09125       -0.61229
H          8.03165       -2.34352        0.47022
H          5.62331       -1.64742       -2.33871
H          6.55507       -3.03209       -2.89239
H          4.89260       -3.25829       -2.36367
H          7.29903       -4.81164       -1.30062
H          6.98723       -4.68286        0.42738
H          5.66280       -5.03410       -0.68004
C          4.47924        3.81805       -2.88232
C          4.86396        2.93466       -1.68308
C          5.56096        1.66412       -2.20936
C          5.85895        3.68946       -0.78121
H          3.99648        4.73887       -2.55696
H          5.35916        4.08887       -3.46560
H          3.78940        3.29245       -3.54054
H          5.86017        1.01365       -1.38765
H          4.90620        1.10160       -2.87353
H          6.45875        1.91965       -2.77197
H          6.11782        3.08963        0.09116
H          6.77888        3.91614       -1.31990
H          5.44066        4.63116       -0.42807
C         -0.41206        4.53836        0.85946
C          1.05046        4.45856        1.32742
C          1.70460        5.83594        1.10475
C          1.09799        4.13770        2.83293
H         -0.46368        4.78615       -0.20005
H         -0.92340        3.59044        1.01162
H         -0.95895        5.30435        1.40870
H          2.74356        5.83478        1.43395
H          1.67345        6.11993        0.05299
H          1.18074        6.60756        1.66889
H          0.62198        4.92525        3.41639
H          0.58774        3.20155        3.05346
H          2.12900        4.04334        3.17314
H         -0.08339       -1.77206       -5.25345
H          3.07460        0.81673       -4.39869
H         -0.85796       -0.46395       -4.35459
H         -1.67843       -2.00877       -4.54026
H          1.78590       -0.18873       -5.05599
H          2.60979       -0.66539       -3.56853
