58
-89.86767329
P          1.56810        0.22632        0.80959
C          1.62065        1.95254        0.31242
C          1.65961        2.96483        1.24444
C          1.68883        4.28253        0.82448
C          1.68450        4.57709       -0.52484
C          1.65899        3.55827       -1.45624
C          1.63075        2.24301       -1.03243
H          1.62362        1.43140       -1.74210
H          1.66838        2.72522        2.29513
C          3.17326       -0.54942        0.60756
C          4.29560        0.24363        0.53162
C          5.54030       -0.33877        0.37235
C          5.65040       -1.71284        0.29006
C          4.52125       -2.50426        0.36639
C          3.27801       -1.91906        0.52658
H          2.38812       -2.52584        0.57448
H          4.19185        1.31531        0.59186
C          1.02005        0.02063        2.55825
C          0.24539       -1.27602        2.76913
C         -1.25088       -1.15929        2.51536
P         -1.70881       -0.57794        0.82469
C         -3.25049       -1.34774        0.32656
C         -4.36576       -0.57554        0.09419
C         -5.54931       -1.17656       -0.29477
C         -5.60572       -2.54780       -0.44886
C         -4.48361       -3.31827       -0.21532
C         -3.30135       -2.71424        0.17464
H         -2.41322       -3.30109        0.34976
H         -4.30506        0.49401        0.21447
C         -1.80317        1.21479        0.66994
C         -1.89437        1.73213       -0.60267
C         -1.92575        3.10107       -0.79371
C         -1.86782        3.94549        0.29650
C         -1.78448        3.42375        1.57218
C         -1.75338        2.05408        1.75916
H         -1.70038        1.64405        2.75341
H         -1.92587        1.05493       -1.44228
Pd         0.07882       -0.79911       -0.63581
Cl         1.73148       -0.85987       -2.16201
Cl        -1.42457       -1.55212       -2.12944
H         -1.74264       -2.12578        2.65137
H         -1.71620       -0.47845        3.22951
H          0.66921       -2.05394        2.11964
H          0.40621       -1.64255        3.79505
H          1.93255        0.05164        3.15940
H          0.42057        0.88277        2.85055
H          1.71174        5.07833        1.55074
H          1.66090        3.78563       -2.50951
H          6.42069        0.27947        0.30958
H          4.60668       -3.57622        0.29653
H         -6.42396       -0.57488       -0.47981
H         -4.52608       -4.38770       -0.34079
H         -1.98635        3.50547       -1.79063
H         -1.73978        4.08399        2.42273
H          1.70363        5.60405       -0.85140
H          6.61896       -2.16828        0.16280
H         -6.52640       -3.01730       -0.75484
H         -1.88465        5.01335        0.15149
