111
-148.55281547
P         -2.28318        2.44301       -0.24058
P         -0.09847        0.27530        0.49811
C         -1.78702        2.22204        1.48501
C         -0.87053        1.24606        1.80715
C         -2.02553        4.19161       -0.78319
C         -0.93244        4.26132       -1.82765
C         -2.33731        3.00721        2.47755
H         -3.04065        3.78073        2.21479
C         -1.98163        2.79564        3.79851
H         -2.41228        3.40615        4.57529
C         -1.08096        1.79900        4.12239
H         -0.80895        1.62954        5.15122
C         -0.52347        1.02138        3.12321
H          0.18002        0.23824        3.35978
Pd        -1.21812        0.80306       -1.47057
Cl        -2.73800        1.08349       -3.09622
Cl        -0.11455       -0.86116       -2.50553
C         -3.41698        4.62093       -1.28751
C         -4.11762        2.30418       -0.47069
H         -1.19111        3.65249       -2.69659
H         -0.77577        5.28547       -2.17477
H          0.01644        3.88622       -1.43564
H         -3.44624        4.50525       -2.37962
H         -3.57859        5.69336       -1.10102
H         -4.26306        1.75378       -1.40920
C         -4.55144        3.76966       -0.65059
C         -4.78989        1.57504        0.67283
H         -1.74779        4.75587        0.11681
H         -4.81786        4.18465        0.33109
H         -5.47076        3.82526       -1.25335
H         -4.38731        0.56665        0.78793
H         -4.63617        2.09878        1.61703
H         -5.86761        1.49299        0.51452
C         -1.08404       -4.15185        0.81185
C          0.26056       -3.75510        0.59493
C          0.53857       -2.40138        0.51462
C         -0.44301       -1.46562        0.70770
C         -1.72220       -1.84101        1.02515
C         -2.06610       -3.17898        1.13204
O         -1.45604       -5.51336        0.65577
C          1.40177       -4.76180        0.38483
H          1.52841       -2.05881        0.27132
H         -2.45734       -1.06816        1.17222
C         -3.49884       -3.54703        1.54686
C          4.35989        1.18005        0.07597
C          3.68849        0.41608       -0.91138
C          2.33141        0.19770       -0.75629
C          1.65665        0.63238        0.35383
C          2.32351        1.28919        1.35544
C          3.68122        1.54767        1.26571
O          5.69845        1.60357       -0.13985
C          4.39694       -0.15062       -2.15207
H          1.76782       -0.30897       -1.51858
H          1.76308        1.61163        2.21385
C          4.39084        2.23914        2.44107
C          1.54254       -5.05649       -1.11643
C          2.73852       -4.18517        0.90473
C          1.14617       -6.06663        1.16058
C         -4.39421       -3.57728        0.29891
C         -3.54242       -4.90811        2.26504
C         -4.06046       -2.50117        2.53688
C         -1.86244       -5.84706       -0.66573
H          2.36024       -5.75194       -1.30372
H          0.63101       -5.49247       -1.51861
H          1.74310       -4.14050       -1.67162
H          3.52484       -4.93882        0.86874
H          3.07730       -3.34229        0.30489
H          2.64071       -3.85239        1.93770
H          1.98723       -6.75243        1.06170
H          0.99909       -5.86045        2.22021
H          0.26002       -6.57907        0.79477
H         -5.42278       -3.82300        0.56165
H         -4.39482       -2.60762       -0.19855
H         -4.04416       -4.31603       -0.41848
H         -3.23776       -5.71599        1.60475
H         -2.87334       -4.90963        3.12486
H         -4.54867       -5.13317        2.61761
H         -5.02500       -2.82022        2.93118
H         -3.38313       -2.36295        3.37924
H         -4.21452       -1.53479        2.06044
H         -1.22508       -6.64079       -1.05515
H         -2.89031       -6.20914       -0.65336
H         -1.79295       -4.97365       -1.31558
C          5.81196        2.85656       -0.80299
C          5.86127       -0.50834       -1.84010
C          3.70963       -1.45129       -2.62829
C          4.33107        0.88020       -3.28902
C          5.84850        1.75988        2.56696
C          4.34885        3.76110        2.23719
C          3.69059        1.90334        3.77787
H          6.43728        0.37344       -1.57131
H          5.91555       -1.20907       -1.00757
H          6.34467       -0.96748       -2.70207
H          3.63106       -2.16881       -1.81261
H          2.71016       -1.26251       -3.01688
H          4.28027       -1.91892       -3.43023
H          4.81827        1.81051       -3.00732
H          4.81912        0.50272       -4.18717
H          3.29573        1.11091       -3.53909
H          6.43335        2.03351        1.69237
H          6.33243        2.20136        3.43782
H          5.88838        0.67597        2.66972
H          3.31929        4.11300        2.17529
H          4.83372        4.27928        3.06416
H          4.85293        4.05030        1.31835
H          3.58724        0.82561        3.90159
H          2.70070        2.35322        3.83921
H          4.26609        2.28307        4.62181
H          4.82366        3.27011       -1.00767
H          6.37472        3.55037       -0.17866
H          6.35330        2.72750       -1.74001
