105
-153.05939696
Cl         0.65101        3.61845        1.54121
Pd        -0.12073        1.94957        0.23583
P         -0.75831        0.26288       -1.30532
N          0.09432       -1.13943       -1.97508
C          0.17829       -2.47149       -1.58214
C         -0.15257       -2.95759       -0.28787
C          0.15997       -4.29301        0.04864
C         -0.00525       -4.74621        1.48134
C          0.79963       -6.00795        1.82463
C          0.56754       -7.09354        0.76977
C          1.00087       -6.60861       -0.62347
C          0.66964       -5.16439       -0.91640
C          0.91550       -4.68480       -2.19590
C          0.69415       -3.37044       -2.51523
H          0.93227       -3.01109       -3.50147
H          1.31572       -5.35746       -2.93574
H          2.08331       -6.74291       -0.73735
H          1.09197       -8.02011        1.04295
H          1.86755       -5.75870        1.86106
H          0.28158       -3.92383        2.14909
C         -0.73202       -2.09195        0.77424
C          0.10213       -1.11954        1.38544
C         -0.34501       -0.45449        2.52739
C         -1.59072       -0.71447        3.03696
C         -2.44482       -1.63194        2.43138
C         -3.79789       -1.86340        3.06383
C         -4.75287       -2.76423        2.25886
C         -3.99646       -3.88723        1.54162
C         -2.93897       -3.29546        0.60023
C         -2.01772       -2.32428        1.29445
H         -2.36106       -4.09025        0.11505
H         -4.68852       -4.54336        0.99498
H         -5.28560       -2.15965        1.51512
H         -4.26664       -0.88806        3.24656
H         -1.92864       -0.19193        3.91578
H          0.28884        0.28275        2.98500
N          1.26133       -0.75200        0.70852
P          1.82785        0.85650        0.97140
C          2.92426        1.34793       -0.35376
C          3.15076        2.68552       -0.57398
C          3.91267        3.08302       -1.65704
C          4.44771        2.14111       -2.52612
C          4.19378        0.79553       -2.29401
C          3.43249        0.39980       -1.20913
H          3.22031       -0.64270       -1.03502
H          4.58822        0.05991       -2.97403
C          5.23390        2.56764       -3.71650
H          4.08239        4.12977       -1.84269
H          2.69039        3.40936        0.07979
C          2.64370        0.89544        2.56753
C          2.58482        1.99763        3.38533
C          3.22208        1.98158        4.61105
C          3.92857        0.85989        5.02427
C          3.96777       -0.24942        4.18981
C          3.32813       -0.22923        2.96271
H          3.34580       -1.08983        2.31219
H          4.49854       -1.13041        4.50791
C          4.59268        0.83056        6.35686
H          3.17173        2.84111        5.25746
H          2.03014        2.86173        3.06259
H          1.10680       -0.84060       -0.29506
H          0.29927       -0.93213       -2.94473
C         -0.63366        1.46469       -2.63864
C         -1.74288        1.98642       -3.25994
C         -1.58835        2.92149       -4.26658
C         -0.32240        3.33480       -4.66051
C          0.78463        2.80237       -4.01408
C          0.62747        1.86689       -3.00801
H          1.48503        1.46363       -2.49441
H          1.77044        3.13068       -4.29558
C         -0.15695        4.36651       -5.72131
H         -2.45370        3.34281       -4.74906
H         -2.72476        1.67210       -2.94683
C         -2.48968       -0.17065       -1.15395
C         -3.03155       -0.97039       -2.13179
C         -4.37563       -1.29732       -2.08812
C         -5.18306       -0.82504       -1.06276
C         -4.61645       -0.01837       -0.08457
C         -3.27388        0.30710       -0.13144
H         -2.83566        0.93588        0.62610
H         -5.23279        0.35663        0.71445
C         -6.62477       -1.19437       -1.01407
H         -4.80497       -1.92655       -2.84892
H         -2.39767       -1.33827       -2.92335
Cl        -2.00727        3.08676       -0.19066
H          0.54624       -7.23613       -1.40070
H          0.54677       -6.37591        2.82911
H         -0.49817       -7.35463        0.74999
H         -1.06620       -4.92951        1.68126
H         -3.50538       -4.52715        2.28517
H         -3.43764       -2.76940       -0.22008
H         -3.63821       -2.29864        4.05767
H         -5.53583       -3.17950        2.90887
H          6.00705        1.83732       -3.95920
H          4.58763        2.67633       -4.58859
H          5.72656        3.52503       -3.54140
H          3.90861        0.46160        7.12228
H          5.46852        0.18030        6.34623
H          4.92421        1.82663        6.65349
H         -0.96174        4.30902       -6.45550
H         -0.16508        5.36858       -5.29041
H          0.78643        4.23654       -6.25354
H         -7.13214       -0.71119       -0.17801
H         -7.13381       -0.89387       -1.93088
H         -6.74525       -2.27264       -0.89956
