72
-98.09591207
Fe         0.00590        2.78111        0.10266
P          1.83608       -0.10695        0.15628
P         -1.83293       -0.08400       -0.17083
C          1.36994        1.52485        0.85373
C          0.32094        1.77029        1.82880
C          0.27047        3.19962        2.08378
C          1.31264        3.83679        1.29931
C          1.99371        2.80122        0.54100
C         -1.35445        1.59032       -0.74883
C         -1.97175        2.84471       -0.34729
C         -1.27560        3.92508       -1.02583
C         -0.25199        3.34067       -1.87275
C         -0.30400        1.89927       -1.70409
C          2.83641        0.13380       -1.38972
C          4.29075       -0.14786       -0.95397
C          3.15969       -0.83853        1.22603
C          4.43552       -0.26505        0.58736
C         -2.84063        0.05709        1.38298
C         -4.29641       -0.16589        0.91829
C         -3.15863       -0.72523       -1.29444
C         -4.43029       -0.17440       -0.62845
H         -0.31597        1.01504        2.28903
H         -0.41005        3.70233        2.77513
H          1.54932        4.90311        1.28834
H          2.83943        2.94925       -0.13388
H         -2.81466        2.95163        0.33888
H          0.32337        1.17349       -2.22086
Cl         1.65371       -3.04398       -0.29614
Cl        -1.66596       -3.07026       -0.00344
Pd        -0.00733       -1.54770       -0.00547
H          2.70841        1.18436       -1.67565
C          2.35940       -0.77967       -2.51320
H          3.12489       -1.92545        1.09058
C          2.98632       -0.49227        2.70004
H          4.96784        0.62226       -1.35224
H          4.61944       -1.08896       -1.41508
H          5.30905       -0.87837        0.85795
H          4.62713        0.72826        1.01759
H         -1.50600        4.98947       -0.93987
H          0.42957        3.88625       -2.52918
H          2.55189       -1.82179       -2.22653
H          3.90566       -0.75349        3.24243
H         -2.69768        1.08033        1.74949
C         -2.38583       -0.94792        2.43533
H         -3.14250       -1.81894       -1.22914
C         -2.96685       -0.28832       -2.74150
H         -4.96246        0.58787        1.36364
H         -4.64646       -1.13004        1.31097
H         -5.31170       -0.75233       -0.94715
H         -4.60097        0.84926       -0.99106
H         -2.57845       -1.96191        2.06076
H         -2.85235        0.80316       -2.77032
C          3.01245       -0.46875       -3.85132
H          2.65946       -1.13308       -4.64338
H          2.80083        0.55581       -4.16326
H          4.09774       -0.57045       -3.79729
C          1.79322       -1.19009        3.33145
H          0.87201       -0.93832        2.80742
H          1.89931       -2.27552        3.28376
H          1.66192       -0.91573        4.38055
C         -3.05846       -0.74349        3.78430
H         -4.14317       -0.83487        3.70616
H         -2.72036       -1.47181        4.52492
H         -2.84768        0.25123        4.18171
C         -1.77933       -0.96575       -3.40452
H         -1.62629       -0.62167       -4.42984
H         -0.86206       -0.77130       -2.85028
H         -1.90807       -2.04937       -3.43416
H          1.26914       -0.71147       -2.60221
H          2.89127        0.59691        2.79968
H         -1.29667       -0.89299        2.54780
H         -3.88512       -0.49842       -3.30740
