111
-148.55550633
P         -2.34490        2.35575        0.06502
P         -0.01165        0.26022        0.51847
C         -1.69471        2.08138        1.73276
C         -0.69480        1.15443        1.92504
C         -2.47822        4.16605       -0.29015
C         -1.71424        4.51948       -1.54734
C         -2.18952        2.79292        2.80690
H         -2.95975        3.52979        2.64778
C         -1.68875        2.56074        4.07639
H         -2.07548        3.11480        4.91607
C         -0.69584        1.61921        4.26847
H         -0.30727        1.43665        5.25683
C         -0.19687        0.91330        3.18832
H          0.58198        0.17799        3.31869
Pd        -1.14771        0.99033       -1.36333
Cl        -2.50289        1.64925       -3.02698
Cl         0.05729       -0.39740       -2.65023
C         -4.00059        4.39584       -0.39385
C         -4.11448        1.84823       -0.14231
H         -0.65875        4.24999       -1.46051
H         -2.12070        3.98329       -2.40659
H         -1.77443        5.58822       -1.76671
H         -4.20188        5.19344       -1.12370
H         -4.38947        4.76835        0.56521
H         -4.11638        0.99939       -0.83970
C         -4.75656        3.09470       -0.78416
C         -4.73697        1.45005        1.17918
H         -2.05447        4.69128        0.57669
H         -5.81465        3.15670       -0.49058
H         -4.75721        2.99044       -1.87921
H         -5.76135        1.09300        1.04887
H         -4.16166        0.66102        1.66874
H         -4.77182        2.30117        1.86089
C         -1.24192       -4.12234        0.59205
C          0.09415       -3.77629        0.92009
C          0.45461       -2.43950        0.88435
C         -0.47014       -1.46738        0.60644
C         -1.78723       -1.78702        0.40060
C         -2.21387       -3.10482        0.41521
O         -1.59613       -5.48667        0.41525
C          1.15170       -4.83191        1.28046
H          1.47094       -2.13816        1.06648
H         -2.48142       -0.98592        0.21254
C         -3.70405       -3.40783        0.19311
C          4.44927        1.05453       -0.01614
C          3.83630       -0.02000       -0.70924
C          2.47561       -0.21627       -0.54232
C          1.74992        0.54331        0.33723
C          2.35995        1.51764        1.08464
C          3.71511        1.77522        0.95981
O          5.78126        1.43729       -0.32703
C          4.60781       -0.94721       -1.66123
H          1.95283       -0.95297       -1.12667
H          1.75454        2.08951        1.76550
C          4.35992        2.84656        1.85338
C          0.51876       -5.99995        2.05844
C          1.81658       -5.35037       -0.00359
C          2.24616       -4.22539        2.18779
C         -4.58251       -2.25522        0.72968
C         -3.96937       -3.55926       -1.31281
C         -4.13247       -4.68175        0.94356
C         -1.45790       -5.95669       -0.91990
H          0.01232       -5.63621        2.95185
H         -0.21275       -6.52937        1.45275
H          1.27530       -6.72106        2.36682
H          1.09466       -5.83666       -0.65420
H          2.26507       -4.53073       -0.56316
H          2.60009       -6.07204        0.22615
H          2.92375       -4.99981        2.54665
H          2.85165       -3.49369        1.65500
H          1.80404       -3.73925        3.05707
H         -5.63775       -2.52570        0.69914
H         -4.32666       -2.02045        1.76255
H         -4.46835       -1.35325        0.13101
H         -5.02152       -3.76705       -1.50548
H         -3.70269       -2.64554       -1.84370
H         -3.38275       -4.36951       -1.73835
H         -5.20178       -4.86042        0.83337
H         -3.61288       -5.55931        0.56791
H         -3.91118       -4.59288        2.00662
H         -0.80364       -6.82828       -0.93288
H         -2.43092       -6.25950       -1.30590
H         -1.04020       -5.17586       -1.55680
C          5.87803        2.38786       -1.38058
C          4.52335       -0.38899       -3.08978
C          6.07892       -1.09404       -1.23173
C          3.99632       -2.36644       -1.64645
C          3.61333        2.95512        3.20274
C          5.82227        2.49011        2.17687
C          4.29154        4.20830        1.14569
H          5.05302       -1.03164       -3.79245
H          3.48527       -0.31746       -3.41370
H          4.95748        0.60633       -3.15017
H          6.60392       -1.80554       -1.86863
H          6.60810       -0.14671       -1.29248
H          6.14441       -1.44709       -0.20308
H          2.99762       -2.38215       -2.07989
H          4.60738       -3.05770       -2.22636
H          3.93615       -2.74723       -0.62755
H          4.14435        3.61727        3.88626
H          2.61123        3.36286        3.07798
H          3.53029        1.97889        3.67978
H          6.26047        3.21609        2.86127
H          5.88384        1.50620        2.64066
H          6.43457        2.47432        1.27859
H          3.25799        4.48022        0.93246
H          4.83030        4.18937        0.20148
H          4.72635        4.99244        1.76497
H          4.88402        2.67934       -1.72218
H          6.41482        3.26868       -1.02845
H          6.43601        1.95941       -2.21287
