64
-97.20902486
Cl        -1.55595       -1.54948       -2.53183
Cl         1.59925       -1.53104       -2.86995
P          1.94486       -0.61334        0.26741
C          2.19951       -2.26327        1.06823
C          3.71081       -0.16952       -0.09491
P         -1.27584       -0.13318        0.41614
C          1.26465        0.62755        1.42289
C         -0.16280        0.86384        1.47671
C         -0.39092        2.01475        2.33904
C          0.89576        2.47482        2.83159
C          1.92202        1.62556        2.25266
H         -1.35830        2.46475        2.56707
H          1.06293        3.31832        3.50496
Pd         0.18296       -1.02942       -1.20947
H          2.99897        1.71481        2.40971
C         -4.88906        2.38301       -0.75879
C         -4.52276        2.26421        0.56731
C         -3.43406        1.48423        0.91467
C         -2.71475        0.83504       -0.06312
C         -3.09571        0.93113       -1.38217
C         -4.17963        1.71225       -1.73494
H         -5.73620        2.99134       -1.03098
H         -5.08415        2.77646        1.33139
H         -3.15140        1.36549        1.94815
H         -2.55989        0.36887       -2.12774
H         -4.47465        1.78959       -2.76859
C         -2.71446       -3.87095        2.55675
C         -2.34120       -2.76057        3.28928
C         -1.90780       -1.61934        2.63824
C         -1.84914       -1.60126        1.26402
C         -2.22491       -2.70158        0.53003
C         -2.65868       -3.84365        1.17677
H         -3.05203       -4.76041        3.06337
H         -2.38649       -2.78224        4.36576
H         -1.61026       -0.74387        3.19338
H         -2.17420       -2.65550       -0.54611
H         -2.95205       -4.70856        0.60481
C          4.02613       -0.22361       -1.57317
H          3.86667        0.84586        0.29250
C          4.50171       -1.20374        0.73025
H          4.72986       -0.79416        1.72521
C          3.70700       -2.52749        0.88866
H          5.47559       -1.38988        0.25440
C          1.75966       -2.21631        2.51534
H          1.59880       -2.99078        0.50522
H          4.08405       -3.10688        1.74373
H          3.87380       -3.16029        0.00482
H          2.32965       -1.46464        3.06511
H          0.70360       -1.95312        2.60083
H          1.90904       -3.17770        3.01246
H          5.07062        0.02819       -1.76967
H          3.84995       -1.22694       -1.96399
H          3.40200        0.46484       -2.14521
Fe         0.82344        2.48359        0.76544
C          2.13551        3.12568       -0.69722
C          1.43398        4.23114       -0.06646
C          0.00624        4.03405       -0.25699
C         -0.17275        2.78441       -0.97372
C          1.13812        2.22537       -1.24300
H          3.21892        3.00467       -0.76272
H          1.90132        5.08765        0.42535
H         -0.78975        4.70216        0.08065
H         -1.12752        2.35630       -1.28063
H          1.33673        1.31993       -1.81947
