111
-148.55966731
P         -2.52073        2.29327        0.33404
P         -0.03996        0.29043        0.48533
C         -1.70741        1.97107        1.92062
C         -0.63193        1.11124        1.97825
C         -2.97216        4.07643        0.14168
C         -2.04938        4.76912       -0.83731
C         -2.17056        2.57373        3.07256
H         -3.02225        3.23253        3.02355
C         -1.54688        2.31932        4.28190
H         -1.90714        2.79031        5.18190
C         -0.46588        1.46069        4.33672
H          0.01961        1.26170        5.27793
C         -0.00942        0.85196        3.18130
H          0.83064        0.17573        3.20849
Pd        -1.17499        1.30812       -1.25231
Cl        -2.59176        2.10287       -2.80228
Cl         0.27728        0.45199       -2.73083
C         -4.44579        4.00920       -0.30165
C         -4.19232        1.51173        0.20930
H         -2.10100        4.29569       -1.81912
H         -2.31757        5.82068       -0.96364
H         -1.00952        4.72075       -0.50498
H         -4.48348        4.02148       -1.39973
H         -4.98599        4.91164        0.02281
H         -4.22147        1.01334       -0.76874
C         -5.14454        2.72244        0.22377
C         -4.41700        0.51871        1.32986
H         -2.89162        4.53038        1.13758
H         -5.49022        2.88845        1.25335
H         -6.05160        2.50242       -0.35948
H         -3.65729       -0.26648        1.32320
H         -4.36310        1.01313        2.30145
H         -5.39836        0.04461        1.25363
C         -1.12696       -4.13279        0.42169
C         -0.10282       -3.66694        1.28884
C          0.20792       -2.31687        1.26883
C         -0.51013       -1.43672        0.50145
C         -1.59293       -1.86176       -0.22429
C         -1.95051       -3.19892       -0.26091
O         -1.26925       -5.52202        0.17220
C          0.66917       -4.56805        2.26778
H          1.03261       -1.93872        1.84954
H         -2.15476       -1.13869       -0.78922
C         -3.21086       -3.58497       -1.05336
C          4.42580        0.82210       -0.22991
C          3.75528       -0.31953       -0.73789
C          2.39622       -0.43930       -0.50154
C          1.72392        0.48235        0.25677
C          2.38556        1.53667        0.82996
C          3.74716        1.71098        0.64322
O          5.76178        1.09650       -0.62618
C          4.46046       -1.39530       -1.57823
H          1.83194       -1.24903       -0.93160
H          1.81728        2.23144        1.42362
C          4.45718        2.86889        1.36239
C          0.68570       -3.90590        3.66317
C          0.01559       -5.95087        2.43455
C          2.11532       -4.74042        1.77504
C         -4.36265       -2.61998       -0.69584
C         -2.91667       -3.47782       -2.55894
C         -3.69756       -5.00656       -0.72291
C         -0.44703       -5.97353       -0.89120
H          1.16914       -4.55287        4.39472
H          1.22720       -2.96144        3.65663
H         -0.32947       -3.70918        4.00681
H          0.51981       -6.53352        3.20518
H         -1.03208       -5.84935        2.71551
H          0.05892       -6.52166        1.51007
H          2.68511       -5.37429        2.45398
H          2.14283       -5.19654        0.78711
H          2.62166       -3.77793        1.71281
H         -4.14926       -1.60060       -1.01224
H         -5.28835       -2.92219       -1.18488
H         -4.53819       -2.61267        0.37947
H         -2.60698       -2.46733       -2.82412
H         -2.11861       -4.15673       -2.85298
H         -3.80048       -3.72322       -3.14711
H         -3.84593       -5.12211        0.35017
H         -4.64100       -5.22503       -1.22266
H         -2.97573       -5.75455       -1.04222
H          0.59819       -5.76006       -0.67277
H         -0.57783       -7.04868       -1.01555
H         -0.72172       -5.46846       -1.81579
C          5.86399        1.90269       -1.79335
C          5.93155       -1.55807       -1.15537
C          3.78300       -2.77123       -1.38357
C          4.37256       -1.01189       -3.06329
C          3.76510        3.17876        2.70968
C          5.91966        2.51042        1.68337
C          4.40103        4.12612        0.48154
H          6.50039       -0.64990       -1.33752
H          6.00182       -1.78844       -0.09282
H          6.41171       -2.36398       -1.70986
H          4.35230       -3.55661       -1.88021
H          3.71894       -3.02318       -0.32589
H          2.77839       -2.79176       -1.80323
H          4.84944       -1.76453       -3.69053
H          3.33241       -0.92052       -3.37544
H          4.85859       -0.05800       -3.25349
H          3.67382        2.27713        3.31487
H          4.33916        3.90823        3.28060
H          2.77021        3.59756        2.56612
H          6.49868        2.35484        0.77658
H          6.40291        3.30600        2.24995
H          5.96990        1.59548        2.27271
H          3.36827        4.40504        0.27371
H          4.89719        3.96209       -0.47196
H          4.88630        4.96911        0.97280
H          6.40354        1.35869       -2.56842
H          4.87147        2.16835       -2.15958
H          6.42214        2.81012       -1.56338
