75
-122.80412568
P          1.88099       -0.51836       -0.15890
C          3.28633       -1.17926       -1.07749
C          4.19269       -1.96749       -0.40395
C          5.29000       -2.48360       -1.06949
C          5.47627       -2.20368       -2.40842
C          4.57135       -1.40623       -3.07946
C          3.47851       -0.89280       -2.40855
H          2.78183       -0.24707       -2.91346
H          4.71887       -1.17917       -4.12256
H          6.33044       -2.60496       -2.92908
H          5.99732       -3.10302       -0.54289
H          4.03749       -2.17749        0.64223
C          1.58341       -1.64783        1.20167
C          1.90777       -1.28573        2.48874
C          1.77800       -2.20573        3.51295
C          1.33001       -3.48265        3.23735
C          1.00895       -3.84145        1.94304
C          1.13983       -2.91959        0.91986
H          0.91092       -3.18814       -0.09973
H          0.65676       -4.83708        1.72915
H          1.22419       -4.19910        4.03550
H          2.02446       -1.92508        4.52368
H          2.26309       -0.28696        2.68460
C          2.27083        1.13756        0.42652
C          3.44806        1.77630        0.11443
C          3.63991        3.10791        0.45776
C          2.59756        3.79573        1.07867
C          1.40709        3.17159        1.37996
C          1.24840        1.80917        1.08143
O          0.05767        1.13262        1.39272
C         -1.13606        1.80527        1.07956
C         -1.28020        3.17936        1.32676
C         -2.44513        3.81167        0.95347
C         -3.47912        3.11475        0.32869
C         -3.31856        1.75844        0.08124
C         -2.17072        1.10767        0.47025
P         -1.77875       -0.62587        0.14297
C         -1.74979       -1.50666        1.72166
C         -1.36031       -0.87693        2.88162
C         -1.42264       -1.54477        4.08986
C         -1.87237       -2.84903        4.13110
C         -2.25663       -3.48391        2.96709
C         -2.19696       -2.80848        1.76155
H         -2.50751       -3.29060        0.84876
H         -2.60552       -4.50301        2.99690
H         -1.91774       -3.37369        5.07145
H         -1.11260       -1.04989        4.99550
H         -0.98953        0.13195        2.83526
C         -3.02039       -1.47342       -0.84738
C         -4.35283       -1.35853       -0.52270
C         -5.30078       -2.05081       -1.25406
C         -4.90553       -2.86537       -2.29645
C         -3.56565       -2.99758       -2.60196
C         -2.62015       -2.30463       -1.86812
H         -1.56935       -2.40503       -2.08990
H         -3.25572       -3.63846       -3.41093
H         -5.64355       -3.40349       -2.86866
H         -6.34545       -1.95831       -1.00627
H         -4.64516       -0.75208        0.31951
Pd        -0.06437        0.12698       -1.35592
Cl        -1.79675        0.40573       -2.77002
Cl         1.31924        1.26208       -2.71280
H         -4.08332        1.22172       -0.45009
C         -4.70770        3.82242       -0.12009
H         -4.60212        4.16249       -1.15102
H         -4.91096        4.69386        0.50358
H         -5.57860        3.16761       -0.06899
H         -2.54878        4.86651        1.13681
S          0.05213        4.05260        2.11188
H          2.71389        4.83926        1.31244
C          4.90136        3.80732        0.09673
H          4.21280        1.24443       -0.42483
H          5.11813        4.61495        0.79707
H          5.74871        3.12054        0.10980
H          4.83162        4.23726       -0.90322
