105
-153.06397776
Cl         0.03091        2.01690        3.08798
Pd        -0.46391        1.36454        0.98968
P         -1.05529        0.51362       -1.12979
N         -0.60964       -0.96376       -1.98049
C          0.25131       -1.99946       -1.62536
C          0.35212       -2.48960       -0.29926
C          1.26952       -3.52409       -0.01473
C          1.34542       -4.06868        1.39254
C          2.56117       -4.96789        1.66944
C          2.79821       -5.94620        0.51613
C          3.03715       -5.18434       -0.79526
C          2.04233       -4.07783       -1.03980
C          1.89112       -3.60843       -2.33831
C          1.01250       -2.59819       -2.62802
H          0.91963       -2.23345       -3.63614
H          2.48719       -4.04288       -3.12295
H          4.04513       -4.75284       -0.79366
H          3.63917       -6.61809        0.73943
H          3.45294       -4.34221        1.80143
H          1.34905       -3.22798        2.09518
C         -0.65995       -2.11354        0.71831
C         -0.25882       -1.49926        1.93522
C         -1.20390       -1.36385        2.95647
C         -2.49362       -1.79594        2.78738
C         -2.90840       -2.38480        1.59896
C         -4.33474       -2.87062        1.50529
C         -4.78203       -3.24124        0.08221
C         -3.69022       -4.03329       -0.64160
C         -2.39322       -3.21571       -0.73287
C         -1.99137       -2.54277        0.55772
H         -1.57039       -3.85779       -1.07118
H         -4.02967       -4.34185       -1.64054
H         -4.99929       -2.32762       -0.48442
H         -4.99815       -2.10417        1.92513
H         -3.20629       -1.68000        3.58638
H         -0.90883       -0.88960        3.87598
N          1.03191       -0.98383        2.12503
P          1.59616        0.22098        0.96987
C          2.61462       -0.35332       -0.37644
C          2.45665        0.23226       -1.60763
C          3.28035       -0.14151       -2.65358
C          4.27821       -1.08807       -2.46080
C          4.43054       -1.65424       -1.20145
C          3.60342       -1.28098       -0.15727
H          3.71922       -1.70948        0.82559
H          5.19810       -2.39256       -1.04470
C          5.13735       -1.52371       -3.59586
H          3.14854        0.29710       -3.62780
H          1.68201        0.96778       -1.74396
C          2.53875        1.53050        1.75988
C          3.24974        1.27625        2.90779
C          3.97760        2.29130        3.50202
C          4.00547        3.56201        2.94289
C          3.28215        3.79667        1.78123
C          2.55570        2.78061        1.18732
H          1.99602        2.95868        0.28207
H          3.28782        4.78148        1.34628
C          4.76218        4.66338        3.60004
H          4.52741        2.10231        4.40817
H          3.23743        0.28615        3.33381
H          1.17090       -0.53274        3.01994
H         -0.87785       -0.86613       -2.95184
C         -0.61087        1.91759       -2.16872
C         -0.93230        3.19237       -1.76790
C         -0.58146        4.27586       -2.54997
C          0.08911        4.09096       -3.75087
C          0.40664        2.79804       -4.14340
C          0.05111        1.71714       -3.35784
H          0.30397        0.71652       -3.66538
H          0.93730        2.64318       -5.06735
C          0.49580        5.25862       -4.58078
H         -0.82571        5.27444       -2.23007
H         -1.46094        3.33367       -0.84013
C         -2.85228        0.49137       -1.08140
C         -3.52521        0.70477       -2.26122
C         -4.90876        0.69025       -2.27906
C         -5.62743        0.46144       -1.11387
C         -4.93037        0.25857        0.06857
C         -3.54812        0.25765        0.07923
H         -3.00531        0.09081        0.99548
H         -5.47757        0.10492        0.98275
C         -7.11621        0.47304       -1.12268
H         -5.43892        0.86310       -3.19999
H         -2.96474        0.88719       -3.16494
Cl        -2.33838        2.61153        1.06248
H          3.01642       -5.87712       -1.64632
H          2.43883       -5.50845        2.61867
H          1.92151       -6.59680        0.40534
H          0.42095       -4.62047        1.60007
H         -3.49513       -4.96489       -0.09570
H         -2.50015       -2.44393       -1.50401
H         -4.44594       -3.74143        2.16243
H         -5.72530       -3.80525        0.10222
H          5.28872       -0.71222       -4.30904
H          6.11953       -1.84473       -3.24615
H          4.68002       -2.35894       -4.12813
H          5.62861        4.27879        4.13991
H          5.12340        5.38544        2.86642
H          4.13007        5.19487        4.31264
H          0.53431        4.99569       -5.63883
H         -0.20882        6.08414       -4.47080
H          1.48314        5.61734       -4.28678
H         -7.50714        0.14771       -2.08778
H         -7.51902       -0.19551       -0.36041
H         -7.49636        1.47632       -0.92578
