111
-148.55044079
P         -2.23199        2.26983        1.08756
P          0.05234        0.13947        0.58889
C         -1.29172        1.61240        2.49112
C         -0.28541        0.70021        2.26479
C         -2.46458        4.09618        1.28439
C         -1.92004        4.85422        0.09372
C         -1.56754        2.02588        3.77886
H         -2.35065        2.74613        3.95070
C         -0.83646        1.51523        4.83768
H         -1.05253        1.83596        5.84370
C          0.16989        0.59683        4.60688
H          0.73856        0.19892        5.43116
C          0.44716        0.18801        3.31455
H          1.22713       -0.53021        3.11463
Pd        -1.25711        1.40681       -0.82979
Cl        -2.78069        2.58113       -1.98446
Cl        -0.16081        0.56250       -2.59670
C         -3.98834        4.23906        1.48345
C         -3.99609        1.71380        1.03597
H         -0.86355        4.62979       -0.07167
H         -2.46018        4.58348       -0.81432
H         -2.02062        5.93418        0.22529
H         -4.32821        5.18555        1.03850
H         -4.22021        4.31781        2.55576
H         -4.10033        1.08441        0.14138
C         -4.76881        3.03906        0.87644
C         -4.36173        0.93044        2.27829
H         -1.91904        4.38141        2.19432
H         -5.76083        2.94525        1.34199
H         -4.95767        3.23243       -0.18989
H         -4.26727        1.55354        3.16913
H         -5.39227        0.56979        2.23673
H         -3.70541        0.06712        2.40918
C         -1.21422       -4.19912        0.00838
C         -1.63612       -3.49119        1.16337
C         -1.21149       -2.18206        1.32171
C         -0.47665       -1.55498        0.34926
C         -0.18517       -2.19320       -0.82758
C         -0.55452       -3.50985       -1.04047
O         -1.42448       -5.60049       -0.08941
C         -2.52509       -4.12232        2.24676
H         -1.44648       -1.63276        2.21645
H          0.32643       -1.63420       -1.59095
C         -0.21338       -4.17841       -2.38119
C          4.28939        0.96020       -0.85175
C          3.89817       -0.37514       -0.57570
C          2.60735       -0.60127       -0.12868
C          1.74699        0.43975        0.10225
C          2.15449        1.73797       -0.05910
C          3.43377        2.03547       -0.49951
O          5.51879        1.21674       -1.51516
C          4.82804       -1.57636       -0.80736
H          2.24781       -1.60315        0.02622
H          1.44500        2.52192        0.14566
C          3.84810        3.50876       -0.63563
C         -3.42883       -3.05092        2.89878
C         -3.46083       -5.18888        1.64887
C         -1.63699       -4.74474        3.33451
C          1.14765       -4.88179       -2.26733
C         -1.30186       -5.18981       -2.78301
C         -0.12850       -3.12881       -3.51291
C         -0.38286       -6.38459        0.47842
H         -3.98969       -2.50554        2.14023
H         -4.14603       -3.51109        3.57809
H         -2.85180       -2.33457        3.48157
H         -4.06255       -4.76414        0.84603
H         -2.90047       -6.02467        1.23796
H         -4.13673       -5.58616        2.40572
H         -0.99063       -5.51607        2.92243
H         -0.99949       -3.98776        3.79084
H         -2.24131       -5.19596        4.12107
H          1.12879       -5.65690       -1.50540
H          1.42762       -5.34638       -3.21242
H          1.92706       -4.17032       -1.99683
H         -2.27707       -4.70614       -2.82754
H         -1.09263       -5.62306       -3.76073
H         -1.36668       -6.00651       -2.06802
H         -0.01851       -3.61325       -4.48277
H         -1.02994       -2.51747       -3.54452
H          0.72892       -2.46925       -3.38673
H          0.42385       -5.74408        0.83718
H         -0.77548       -6.97306        1.30730
H          0.00480       -7.07270       -0.27272
C          5.41412        1.25541       -2.93306
C          4.65842       -2.07724       -2.24995
C          6.29714       -1.19958       -0.54391
C          4.47951       -2.73259        0.15774
C          3.46131        4.01553       -2.03357
C          3.12570        4.37759        0.41958
C          5.35928        3.68682       -0.40272
H          3.62253       -2.35544       -2.44158
H          4.93109       -1.30903       -2.96919
H          5.28350       -2.95005       -2.43683
H          6.94896       -2.06649       -0.64917
H          6.64385       -0.44127       -1.24144
H          6.41705       -0.80521        0.46459
H          5.21534       -3.53303        0.08364
H          4.46644       -2.38489        1.19038
H          3.50871       -3.17035       -0.06982
H          3.96239        3.44615       -2.81253
H          2.38759        3.91986       -2.19398
H          3.72952        5.06440       -2.15726
H          2.05587        4.44153        0.22665
H          3.27061        3.97195        1.42052
H          3.51243        5.39642        0.41198
H          5.64624        3.29170        0.57118
H          5.63987        4.73920       -0.43812
H          5.94226        3.16607       -1.15797
H          4.38779        1.05546       -3.24381
H          5.71987        2.23611       -3.29698
H          6.07867        0.50962       -3.36896
