72
-98.10205080
Fe         0.02238        2.76737       -0.00381
P          1.85528       -0.10067        0.04229
P         -1.88665       -0.05503        0.05614
C          1.41839        1.54603        0.71526
C          0.41989        1.79864        1.74055
C          0.34980        3.23693        1.93461
C          1.35708        3.86435        1.09647
C          2.02619        2.81506        0.34634
C         -1.42978        1.57576       -0.65658
C         -1.99122        2.86449       -0.27985
C         -1.33388        3.88821       -1.07448
C         -0.39821        3.23291       -1.96984
C         -0.46720        1.80404       -1.72033
C          3.28264       -0.77956        1.00956
C          4.48931       -0.27931        0.19815
C          2.69176        0.06740       -1.60812
C          4.17539       -0.24485       -1.32051
C         -3.23070       -0.76260       -1.01058
C         -4.43740        0.08214       -0.56747
C         -2.95739        0.24534        1.55046
C         -4.36287        0.46826        0.94004
H         -0.20732        1.04865        2.22262
H         -0.31239        3.75390        2.63356
H          1.57638        4.93328        1.04336
H          2.83826        2.94970       -0.37141
H         -2.75852        3.03213        0.47861
H          0.08133        1.03323       -2.25994
Cl         1.56675       -3.05931       -0.22848
Cl        -1.66386       -3.02040        0.37022
Pd        -0.02512       -1.49574        0.09972
H          3.21520       -1.87229        0.95710
C          3.29158       -0.32605        2.46484
H          2.56179        1.11303       -1.91120
C          2.08053       -0.86527       -2.64788
H          5.37435       -0.90068        0.40540
H          4.75050        0.73088        0.54404
H          4.82712        0.47462       -1.83809
H          4.41941       -1.22300       -1.75648
H         -1.53330        4.96126       -1.02869
H          0.23099        3.72446       -2.71531
H          4.25917       -0.58623        2.91615
H          2.25410       -1.90341       -2.33558
H         -3.37046       -1.80744       -0.71070
C         -2.93334       -0.67956       -2.50497
H         -2.58399        1.15552        2.03479
C         -2.94989       -0.91468        2.54481
H         -5.37832       -0.44241       -0.79545
H         -4.45845        0.99444       -1.18164
H         -4.68418        1.51052        1.08366
H         -5.09002       -0.13120        1.50551
H         -3.86985       -0.81783       -3.06306
H         -3.19963       -1.83725        2.00500
C          2.15992       -0.92746        3.27907
H          1.19357       -0.64780        2.86273
H          2.20645       -2.01811        3.27745
H          2.17811       -0.59592        4.31971
C          2.62540       -0.63471       -4.04925
H          2.17461       -1.31007       -4.78001
H          2.43219        0.38666       -4.38285
H          3.70562       -0.78577       -4.08627
C         -1.90505       -1.69757       -2.96926
H         -2.24545       -2.71722       -2.77936
H         -1.69378       -1.61293       -4.03761
H         -0.96258       -1.57622       -2.43823
C         -1.64390       -1.08534        3.30015
H         -0.82504       -1.31334        2.62028
H         -1.37862       -0.17869        3.84697
H         -1.69462       -1.90145        4.02460
H          3.24397        0.77041        2.49473
H          0.99106       -0.75132       -2.64762
H         -2.60340        0.33931       -2.74504
H         -3.76951       -0.77115        3.26278
