45
-71.81661488
C          2.24864        0.90237        2.55106
P          1.51659        0.75483        0.88733
P         -1.07521        0.30401       -0.86138
C         -0.55284       -0.00881       -2.58170
Cl         1.36148       -2.23647        2.02275
H          1.46627        1.07988        3.28341
H         -0.74667       -1.04434       -2.84652
Cl        -1.24342       -2.72964       -0.07229
C          0.49299        2.17115        0.43849
C         -0.62582        1.97057       -0.34005
C         -1.40480        3.04069       -0.72874
C         -1.05597        4.32111       -0.33641
C          0.07004        4.52376        0.43815
C          0.84890        3.44705        0.82468
H         -2.27959        2.86623       -1.33461
H         -1.66211        5.15965       -0.63741
H          0.34436        5.52125        0.73978
H          1.73583        3.59460        1.41919
Pd         0.15178       -1.08046        0.53233
H          0.51097        0.18644       -2.68386
H          2.95537        1.72678        2.57711
H         -1.09755        0.64188       -3.25981
C         -5.48110       -0.47020       -0.03546
C         -4.96442       -0.77127       -1.28027
C         -3.62813       -0.53525       -1.54897
C         -2.82046        0.00195       -0.57269
C         -3.32954        0.30025        0.67091
C         -4.66589        0.06510        0.94199
H         -6.52164       -0.65659        0.17470
H         -5.60009       -1.19383       -2.04099
H         -3.21250       -0.77460       -2.51413
H         -2.67745        0.71393        1.42457
H         -5.06722        0.29638        1.91496
C          4.58801       -0.10418       -2.34798
C          3.86503        1.07247       -2.38559
C          2.93661        1.34275       -1.39655
C          2.74529        0.43811       -0.37786
C          3.45300       -0.74108       -0.34202
C          4.38228       -1.01387       -1.32901
H          5.31163       -0.31511       -3.11837
H          4.02261        1.77879       -3.18406
H          2.35905        2.25280       -1.41465
H          3.24904       -1.45107        0.44399
H          4.93843       -1.93655       -1.30550
H          2.76897       -0.01610        2.80714
