72
-108.40261115
Cl        -1.85099        0.70994        2.63374
Cl         1.02400       -0.71714        2.74876
P          1.14355       -1.13496       -0.29214
P         -2.27606        0.12642       -0.36155
C         -3.26675       -1.47909       -0.15362
C         -3.63991       -1.64922        1.31983
C         -4.52219       -1.43062       -1.01723
C         -3.36166        1.67317       -0.11366
C         -4.14763        1.98046       -1.39522
C         -1.45377        0.42722       -2.03613
C         -1.50389       -0.73520       -3.00584
C          1.13322        0.23117       -1.49317
C         -0.04026        0.97442       -1.95083
C          0.46068        2.08962       -2.75606
C          1.90523        1.99201       -2.84423
C          2.31891        0.83831       -2.06915
C         -2.39941       -2.66534       -0.55543
H         -2.75468       -1.63852        1.95585
H         -4.31135       -0.86930        1.66867
H         -5.21301       -0.66108       -0.67718
H         -5.05374       -2.38267       -0.97441
C         -4.34662        1.52621        1.04266
H         -4.93057        2.71402       -1.19564
H         -4.62615        1.09036       -1.79997
H         -2.06126        1.23115       -2.46173
H         -0.85483       -1.53993       -2.66882
H         -1.13868       -0.43762       -3.99094
H         -2.51222       -1.12607       -3.13655
H         -0.16294        2.79573       -3.30764
H          2.56289        2.65524       -3.41060
Pd        -0.50248       -0.28751        1.15073
H          3.34235        0.49796       -1.89739
C         -2.39612        2.81231        0.17867
H         -3.51556        2.41048       -2.17140
H         -3.84528        1.23155        1.96202
H         -4.84609        2.47594        1.23933
H         -5.12574        0.80056        0.81722
H         -1.62248        2.87529       -0.58799
H         -2.91924        3.77016        0.20980
H         -1.91650        2.66869        1.14588
H         -4.14685       -2.60229        1.47945
H         -4.28301       -1.23334       -2.06113
H         -2.16895       -2.66662       -1.61753
H         -1.46605       -2.66294        0.00476
H         -2.90817       -3.60652       -0.34018
C          2.82096       -1.22686        0.38563
C          3.27348       -2.21305        1.22647
C          4.60273       -1.91672        1.52806
C          4.90883       -0.76009        0.85464
O          3.82414       -0.32625        0.14879
H          2.69938       -3.04538        1.59864
H          5.25926       -2.48283        2.16846
H          5.86503       -0.25187        0.87192
C          0.75961       -2.73561       -1.02479
C          0.66822       -3.89453       -0.29395
C          0.36018       -4.91925       -1.18992
C          0.27726       -4.34118       -2.43291
O          0.51695       -2.99941       -2.34522
H          0.79216       -3.98422        0.77333
H          0.21571       -5.96051       -0.95235
H          0.05318       -4.85885       -3.35735
Fe         1.32081        2.14442       -0.88559
C          2.98342        2.76177        0.10455
C          2.14332        1.96884        0.98010
C          0.84833        2.61033        1.06044
C          0.87576        3.80153        0.23264
C          2.19309        3.88364       -0.37369
H          4.02423        2.54679       -0.14890
H          2.43307        1.05358        1.49950
H          0.02680        2.27371        1.69488
H          0.06664        4.52552        0.11282
H          2.54502        4.67854       -1.03588
