72
-98.09342760
Fe         0.02481        2.78090       -0.04225
P          1.88026       -0.08545       -0.02227
P         -1.86275       -0.09969       -0.04728
C          1.42786        1.55257        0.68230
C          0.44158        1.80250        1.71893
C          0.36212        3.24056        1.91243
C          1.37609        3.88536        1.09794
C          1.98390        2.84114        0.28995
C         -1.41153        1.53757       -0.73237
C         -1.98932        2.82095       -0.36904
C         -1.32314        3.85711       -1.14090
C         -0.32537        3.21546       -1.97881
C         -0.38331        1.78504       -1.72839
C          3.20275       -0.85489        1.04164
C          4.52693       -0.51495        0.32039
C          2.92525        0.20172       -1.53531
C          4.31617        0.41244       -0.90562
C         -3.29963       -0.75836       -1.01562
C         -4.49881       -0.21211       -0.22258
C         -2.70477        0.08189        1.59800
C         -4.19942       -0.16204        1.29875
H         -0.16938        1.05559        2.22342
H         -0.28866        3.74589        2.63024
H          1.58265        4.95618        1.04114
H          2.76195        2.99578       -0.46060
H         -2.80192        2.97150        0.34485
H          0.23416        1.02311       -2.20492
Cl         1.62654       -3.05987       -0.35580
Cl        -1.61917       -3.05496        0.19899
Pd         0.00876       -1.51763       -0.07176
H          3.02580       -1.93663        1.02417
C          3.15214       -0.36471        2.48521
H          2.56257        1.11330       -2.02524
C          2.92275       -0.96594       -2.52062
H          5.02508       -1.44167        0.00059
H          5.22089       -0.04784        1.03309
H          4.43139        1.46135       -0.59558
H          5.09866        0.24167       -1.66022
H         -1.54151        4.92696       -1.10458
H          0.33928        3.71661       -2.68694
H          4.09006       -0.63099        2.99229
H          3.74708       -0.82867       -3.23416
H         -3.26201       -1.85139       -0.94494
C         -3.28675       -0.32808       -2.47781
H         -2.53077        1.11568        1.91906
C         -2.13917       -0.89706        2.62128
H         -5.39933       -0.81102       -0.42920
H         -4.72800        0.79942       -0.58683
H         -4.82015        0.59925        1.79403
H         -4.49722       -1.11718        1.75193
H         -4.25235       -0.58376       -2.93590
H         -1.04456       -0.85782        2.60039
C          1.97441       -0.93334        3.25786
H          1.91290       -0.53355        4.27252
H          1.03636       -0.70683        2.75506
H          2.03788       -2.02061        3.33334
C          1.62087       -1.14362       -3.28093
H          1.35553       -0.24038       -3.83332
H          1.67696       -1.96318       -4.00107
H          0.80010       -1.37097       -2.60315
C         -2.15317       -0.95478       -3.26941
H         -1.18886       -0.67347       -2.84958
H         -2.20827       -2.04477       -3.24604
H         -2.15919       -0.64411       -4.31662
C         -2.64369       -0.64149        4.03330
H         -2.37443        0.36105        4.37129
H         -3.73110       -0.71743        4.08694
H         -2.22903       -1.35279        4.75120
H          3.12481        0.73275        2.48545
H          3.16985       -1.88391       -1.97204
H         -3.22549        0.76712       -2.52455
H         -2.38624       -1.91917        2.30500
