105
-153.06891927
Cl        -0.04400        1.70283        3.13297
Pd        -0.62086        1.18509        1.01410
P         -1.29206        0.56989       -1.14256
N         -1.04526       -1.02156       -1.84016
C          0.02133       -1.89822       -1.60630
C          0.29379       -2.42797       -0.31809
C          1.33415       -3.36463       -0.15950
C          1.58688       -3.94681        1.21079
C          2.48008       -5.19704        1.21715
C          3.68480       -5.01477        0.28951
C          3.22482       -4.75452       -1.15290
C          2.09218       -3.76446       -1.26302
C          1.78741       -3.25510       -2.51904
C          0.77112       -2.35222       -2.69157
H          0.54860       -1.96972       -3.67229
H          2.36748       -3.57880       -3.36669
H          4.06585       -4.39798       -1.76132
H          4.28659       -4.16689        0.63973
H          2.80818       -5.43785        2.23821
H          2.04025       -3.16960        1.83668
C         -0.62284       -2.15986        0.81526
C         -0.12402       -1.54716        1.99830
C         -0.97162       -1.44892        3.10601
C         -2.26622       -1.89398        3.04565
C         -2.76973       -2.49420        1.89833
C         -4.19162       -2.99120        1.91279
C         -4.42464       -4.15550        0.94034
C         -3.89996       -3.80222       -0.45441
C         -2.40376       -3.43951       -0.42481
C         -1.94422       -2.65027        0.78260
H         -1.80447       -4.35640       -0.47647
H         -4.47601       -2.95851       -0.85387
H         -5.48902       -4.42790        0.90182
H         -4.85819       -2.15714        1.66382
H         -2.91166       -1.77872        3.89985
H         -0.60661       -0.96823        3.99662
N          1.15285       -0.97078        2.06396
P          1.54832        0.24684        0.84726
C          2.66702       -0.33168       -0.42004
C          2.52772        0.13720       -1.70167
C          3.43069       -0.24821       -2.67509
C          4.48260       -1.09922       -2.36284
C          4.62683       -1.53120       -1.05072
C          3.71941       -1.14625       -0.07985
H          3.82618       -1.47330        0.94221
H          5.45314       -2.17176       -0.79423
C          5.45841       -1.51062       -3.40910
H          3.32088        0.10882       -3.68475
H          1.71182        0.79928       -1.93269
C          2.38405        1.66795        1.56386
C          3.17452        1.52620        2.67866
C          3.82196        2.62966        3.20426
C          3.68145        3.87922        2.61525
C          2.89743        3.99572        1.47539
C          2.25119        2.89151        0.95096
H          1.64434        2.97800        0.06350
H          2.79614        4.95645        1.00015
C          4.39475        5.06310        3.16933
H          4.44259        2.52608        4.07789
H          3.29081        0.55461        3.13036
H          1.36798       -0.52544        2.94641
H         -1.36261       -0.91896       -2.79551
C         -0.47919        1.83486       -2.12593
C         -0.34657        3.10827       -1.62219
C          0.31814        4.07382       -2.35524
C          0.85208        3.77249       -3.60048
C          0.68231        2.49110       -4.10628
C          0.01803        1.52696       -3.37054
H         -0.09160        0.52725       -3.75575
H          1.07892        2.25130       -5.07810
C          1.55415        4.81602       -4.39757
H          0.42492        5.07098       -1.96332
H         -0.77169        3.34831       -0.66041
C         -3.06303        0.83638       -1.23904
C         -3.58952        1.93244       -1.88041
C         -4.96106        2.09746       -1.94390
C         -5.81309        1.16902       -1.36060
C         -5.26189        0.06483       -0.72504
C         -3.88957       -0.09657       -0.66429
H         -3.44952       -0.92891       -0.14071
H         -5.91299       -0.66340       -0.27270
C         -7.29034        1.33564       -1.44636
H         -5.37922        2.95201       -2.44792
H         -2.92801        2.65413       -2.33061
Cl        -2.78182        1.49254        1.56335
H          2.90869       -5.69732       -1.61506
H          1.89488       -6.06355        0.88450
H          4.35040       -5.88826        0.33760
H          0.62162       -4.17413        1.68067
H         -4.08166       -4.63038       -1.15392
H         -2.14958       -2.87843       -1.33024
H         -4.46119       -3.28740        2.93462
H         -3.90381       -5.04791        1.30978
H          6.25896       -0.77566       -3.50302
H          5.91130       -2.47360       -3.16881
H          4.97335       -1.60743       -4.38150
H          3.84463        5.98347        2.96857
H          4.51497        4.97942        4.25033
H          5.38688        5.16007        2.72636
H          0.85195        5.35310       -5.03662
H          2.04368        5.54377       -3.74882
H          2.32067        4.37426       -5.03587
H         -7.56656        2.39075       -1.46824
H         -7.68152        0.86597       -2.34988
H         -7.78796        0.88182       -0.58818
