171
-217.83719695
P         -1.68435        0.68940        0.22003
P          1.50219       -0.18910       -0.24429
C         -0.87130        1.90847       -0.83733
C          0.66891       -0.73229       -1.74816
C         -0.16177        1.59627       -1.99103
C          0.52509        2.62539       -2.66250
C          0.45426        3.91931       -2.17451
C         -0.26334        4.21211       -1.03487
C         -0.91638        3.19777       -0.36193
C          0.78271       -2.03101       -2.17898
C          0.14058       -2.44043       -3.33072
C         -0.61948       -1.53971       -4.04784
C         -0.75432       -0.22563       -3.62852
C         -0.08153        0.19123       -2.46424
Cl         2.00312        0.95040        2.81914
Cl        -1.06124        0.28933        3.46761
C         -1.59056        0.73093       -4.40569
C          1.35510        2.35672       -3.86885
H         -0.30516        5.22277       -0.66288
H         -1.45810        3.40584        0.54913
H          1.37419       -2.72868       -1.61244
H          0.22928       -3.46146       -3.66427
H          0.98257        4.70130       -2.69365
H         -1.11663       -1.85636       -4.94887
C         -2.87426       -3.43021       -1.26180
C         -3.48388       -2.30607       -1.80586
C         -3.05781       -1.06103       -1.36297
C         -2.06965       -0.95082       -0.41575
C         -1.48939       -2.07553        0.12366
C         -1.87992       -3.34180       -0.29400
H         -3.19962       -4.40055       -1.58317
H         -3.52640       -0.16761       -1.73734
H         -0.74508       -1.97002        0.89297
C         -5.67732        2.45273        1.43246
C         -4.87552        1.90572        2.42644
C         -3.64689        1.38071        2.05057
C         -3.24296        1.41568        0.74078
C         -4.04395        1.96913       -0.22818
C         -5.28804        2.49399        0.09958
H         -6.63404        2.85930        1.70466
H         -2.98426        0.94679        2.77613
H         -3.68500        1.99248       -1.24315
C          3.84501       -3.70448        1.47705
C          2.92460       -3.06934        2.30144
C          2.19984       -2.01040        1.77424
C          2.39768       -1.58703        0.48140
C          3.33288       -2.21355       -0.30591
C          4.06382       -3.29460        0.16789
H          4.40983       -4.52974        1.86553
H          1.48985       -1.50294        2.40035
H          3.49634       -1.85979       -1.30896
C          4.64031        2.87134       -1.40156
C          4.46649        1.74471       -2.19625
C          3.48870        0.83068       -1.82039
C          2.73419        1.03685       -0.69119
C          2.92011        2.15662        0.07782
C          3.87254        3.10459       -0.26672
H          5.40721        3.57311       -1.66953
H          3.29717       -0.04399       -2.41705
H          2.33415        2.28110        0.97049
Pd         0.17715        0.45411        1.60693
C         -5.92781       -1.85371       -2.07648
C         -4.66889       -2.39494       -2.77929
C         -4.93454       -3.84596       -3.22407
C         -4.38075       -1.55147       -4.03347
H         -6.14681       -2.43219       -1.17924
H         -5.79477       -0.81424       -1.77812
H         -6.79585       -1.90545       -2.73340
H         -5.20804       -4.47430       -2.37674
H         -5.75566       -3.88657       -3.93971
H         -4.05491       -4.27442       -3.70437
H         -5.20534       -1.61443       -4.74337
H         -4.24179       -0.50114       -3.78181
H         -3.48009       -1.90474       -4.53341
C          0.24455       -4.58870        0.22826
C         -1.28573       -4.58519        0.38615
C         -1.83223       -5.89074       -0.22354
C         -1.65587       -4.55217        1.88004
H          0.68497       -3.68525        0.64363
H          0.68975       -5.44120        0.74084
H          0.52256       -4.64969       -0.82311
H         -1.60286       -5.95210       -1.28730
H         -1.38571       -6.75900        0.26104
H         -2.91210       -5.96341       -0.09602
H         -1.26306       -3.65864        2.36299
H         -2.73818       -4.54859        2.00743
H         -1.25775       -5.42207        2.40186
C         -4.31876        1.25315        4.82275
C         -5.36058        1.89204        3.88304
C         -6.66484        1.07926        3.97625
C         -5.61355        3.33781        4.34847
H         -3.37827        1.80312        4.79812
H         -4.67433        1.25375        5.85293
H         -4.11986        0.21878        4.54337
H         -6.50694        0.05815        3.62954
H         -7.02456        1.03526        5.00410
H         -7.45170        1.52160        3.36640
H         -6.38390        3.81904        3.74711
H         -5.93933        3.36157        5.38823
H         -4.70411        3.93268        4.26586
C         -7.55979        2.33095       -0.95121
C         -6.22338        3.09634       -0.95804
C         -5.61724        3.00082       -2.37258
C         -6.47078        4.57978       -0.63014
H         -8.05914        2.41256        0.01345
H         -8.23694        2.72182       -1.71050
H         -7.39822        1.27278       -1.15583
H         -6.29592        3.42314       -3.11348
H         -4.67815        3.55032       -2.43574
H         -5.43051        1.96345       -2.65015
H         -7.12025        5.04096       -1.37400
H         -6.94414        4.69573        0.34420
H         -5.53109        5.13162       -0.61333
C          3.58171       -4.66764        4.17230
C          2.71517       -3.45844        3.77217
C          1.23744       -3.82145        4.00300
C          3.09646       -2.26233        4.66481
H          3.41346       -4.93525        5.21541
H          3.34115       -5.53998        3.56479
H          4.64252       -4.44616        4.05689
H          0.58394       -2.97691        3.78850
H          0.94267       -4.65109        3.36152
H          1.06564       -4.11813        5.03744
H          2.47402       -1.39438        4.44990
H          2.97482       -2.50718        5.71967
H          4.13488       -1.97559        4.50087
C          4.33832       -4.49364       -2.01559
C          5.07406       -3.97817       -0.76392
C          5.76690       -5.17152       -0.07892
C          6.15025       -2.95757       -1.17868
H          5.02474       -5.00917       -2.68699
H          3.54890       -5.19183       -1.73760
H          3.88073       -3.67647       -2.57211
H          6.47323       -5.64976       -0.75744
H          6.32285       -4.85018        0.80164
H          5.04023       -5.92467        0.22540
H          5.71139       -2.11470       -1.71087
H          6.66726       -2.56599       -0.30289
H          6.89182       -3.41548       -1.83300
C          5.43410        2.74805       -4.30050
C          5.38899        1.49848       -3.39969
C          4.90375        0.30873       -4.25209
C          6.80400        1.18782       -2.88020
H          5.83011        3.61190       -3.76870
H          6.07095        2.57674       -5.16826
H          4.43920        3.00322       -4.66280
H          4.92439       -0.62020       -3.68301
H          3.88739        0.47188       -4.60971
H          5.54373        0.17114       -5.12352
H          7.48978        0.99327       -3.70460
H          7.20084        2.02192       -2.30221
H          6.79318        0.30991       -2.23453
C          2.72173        5.11269        0.69378
C          4.05235        4.34056        0.62517
C          5.13815        5.28647        0.07817
C          4.46126        3.88767        2.03928
H          1.92808        4.49771        1.11655
H          2.81845        6.00387        1.31347
H          2.40843        5.42585       -0.30177
H          5.24304        6.16413        0.71590
H          6.10772        4.79035        0.03912
H          4.88603        5.63435       -0.92347
H          3.69673        3.25529        2.48903
H          5.38905        3.31699        2.00718
H          4.61325        4.74452        2.69521
H         -2.28033        0.20945       -5.07030
H          0.92525        2.82912       -4.75330
H         -0.97014        1.38155       -5.02245
H         -2.18213        1.36163       -3.73994
H          1.44773        1.28814       -4.06560
H          2.36106        2.75459       -3.73380
