111
-148.55311585
P         -2.57287        2.01648        1.04040
P          0.13966        0.47113        0.48188
C         -1.45647        1.61407        2.41529
C         -0.25955        0.98090        2.16130
C         -3.49480        3.58260        1.40211
C         -3.37522        4.57668        0.26843
C         -1.80387        1.92641        3.71459
H         -2.74817        2.40577        3.91369
C         -0.94606        1.60945        4.75384
H         -1.21778        1.85346        5.76788
C          0.25560        0.97912        4.49399
H          0.92239        0.73023        5.30308
C          0.59817        0.66006        3.19250
H          1.52537        0.15461        2.97240
Pd        -1.34310        1.60835       -0.88272
Cl        -3.04652        2.49249       -2.03916
Cl         0.01473        1.26359       -2.63637
C         -4.93453        3.08586        1.65018
C         -3.98373        0.82788        0.88802
H         -3.82828        4.17845       -0.64025
H         -3.88217        5.51582        0.50235
H         -2.32978        4.80152        0.04486
H         -5.64894        3.86160        1.33802
H         -5.10242        2.94641        2.72824
H         -3.87720        0.33184       -0.08669
C         -5.22039        1.74940        0.90897
C         -3.95099       -0.19240        2.00487
H         -3.05615        4.00243        2.31726
H         -6.06484        1.22054        1.37445
H         -5.53867        1.96774       -0.12110
H         -3.01456       -0.75436        1.99704
H         -4.03236        0.29741        2.97698
H         -4.77435       -0.90590        1.92226
C         -1.15569       -3.83494       -0.24027
C         -1.03018       -3.35992        1.09069
C         -0.62860       -2.04897        1.28468
C         -0.41889       -1.21104        0.22144
C         -0.63131       -1.63803       -1.06183
C         -1.04648       -2.93066       -1.32753
O         -1.34985       -5.22051       -0.48465
C         -1.27714       -4.25656        2.31391
H         -0.45800       -1.66629        2.27523
H         -0.45534       -0.93745       -1.85977
C         -1.34553       -3.32929       -2.78077
C          4.56941        0.63163       -0.54894
C          4.02683       -0.50934        0.09994
C          2.67157       -0.51570        0.38436
C          1.88734        0.57813        0.12557
C          2.43124        1.72909       -0.37999
C          3.77855        1.80287       -0.69488
O          5.86625        0.57222       -1.12073
C          4.84920       -1.74172        0.51286
H          2.20534       -1.39386        0.79928
H          1.78157        2.57060       -0.55172
C          4.32645        3.15151       -1.19129
C          0.03324       -4.96117        2.69687
C         -1.75671       -3.42004        3.52197
C         -2.37550       -5.29610        2.02585
C         -0.05224       -3.81892       -3.44958
C         -2.42675       -4.42294       -2.84655
C         -1.88442       -2.11630       -3.57464
C         -0.14230       -5.95130       -0.65947
H          0.80878       -4.23186        2.93023
H         -0.10623       -5.59746        3.57045
H          0.39860       -5.58317        1.88332
H         -2.03647       -4.06745        4.35276
H         -0.97796       -2.75199        3.88677
H         -2.62825       -2.82202        3.25852
H         -2.07527       -5.98281        1.23831
H         -2.59651       -5.88897        2.91305
H         -3.29467       -4.80478        1.70834
H         -0.23068       -4.09684       -4.48799
H          0.70792       -3.03812       -3.43474
H          0.35460       -4.68591       -2.93448
H         -2.68306       -4.65910       -3.87902
H         -2.09178       -5.34199       -2.37251
H         -3.33334       -4.09657       -2.33802
H         -2.22210       -2.42070       -4.56491
H         -2.72855       -1.65931       -3.05883
H         -1.11974       -1.35467       -3.71878
H         -0.08786       -6.74875        0.08147
H         -0.12867       -6.40591       -1.64985
H          0.72060       -5.29313       -0.54951
C          5.85546        0.09843       -2.45727
C          4.51079       -2.91731       -0.41936
C          6.36383       -1.47440        0.47819
C          4.49314       -2.13179        1.96495
C          5.86341        3.21114       -1.15253
C          3.83711        3.40110       -2.62776
C          3.80940        4.28474       -0.27767
H          3.44721       -3.15157       -0.38111
H          4.76184       -2.68545       -1.45256
H          5.06186       -3.81263       -0.13274
H          6.70909       -1.28945       -0.53612
H          6.61363       -0.60140        1.08016
H          6.92209       -2.32627        0.86579
H          4.64742       -1.28888        2.63804
H          3.45618       -2.45082        2.05670
H          5.11713       -2.95593        2.30982
H          6.22478        4.20516       -1.41502
H          6.23247        2.96656       -0.15713
H          6.30353        2.50625       -1.85376
H          2.74856        3.39630       -2.67460
H          4.18532        4.36561       -2.99624
H          4.20005        2.63186       -3.30645
H          2.72772        4.39199       -0.33743
H          4.24565        5.24205       -0.56185
H          4.07272        4.09076        0.76172
H          5.24573        0.75067       -3.08017
H          6.87554        0.08278       -2.84161
H          5.44114       -0.90762       -2.49442
