105
-153.06625591
Cl         0.03739        1.99039        3.05661
Pd        -0.47769        1.30662        0.96873
P         -1.08886        0.49221       -1.15316
N         -0.67969       -1.00397       -1.98868
C          0.21188       -2.01365       -1.63192
C          0.33042       -2.49037       -0.30231
C          1.27787       -3.49408       -0.01147
C          1.38194       -4.01050        1.40422
C          2.19782       -5.30366        1.55767
C          3.47322       -5.25138        0.71185
C          3.12800       -5.07172       -0.77372
C          2.08035       -4.01758       -1.02911
C          1.90488       -3.57183       -2.33308
C          0.98729       -2.59922       -2.63175
H          0.87755       -2.25016       -3.64369
H          2.51312       -3.99473       -3.11469
H          4.03023       -4.81975       -1.34584
H          4.09602       -4.41180        1.04553
H          2.43889       -5.49081        2.61363
H          1.82670       -3.22362        2.02419
C         -0.67309       -2.11905        0.72404
C         -0.25400       -1.53042        1.94833
C         -1.19080       -1.39507        2.97728
C         -2.48877       -1.80179        2.80888
C         -2.91993       -2.36821        1.61539
C         -4.35487       -2.82968        1.52611
C         -4.81313       -3.19985        0.10633
C         -3.73128       -4.00044       -0.62289
C         -2.43070       -3.19005       -0.72381
C         -2.01133       -2.52870        0.56704
H         -1.61540       -3.83436       -1.07580
H         -4.07894       -4.30920       -1.61895
H         -5.02788       -2.28584       -0.46069
H         -5.00356       -2.04950        1.94368
H         -3.19512       -1.68461        3.61329
H         -0.88292       -0.93870        3.90165
N          1.04223       -1.02703        2.13414
P          1.60005        0.19345        0.99126
C          2.60905       -0.35972       -0.37117
C          2.41098        0.20988       -1.60402
C          3.22846       -0.14539       -2.66112
C          4.25926       -1.05809       -2.47886
C          4.45138       -1.60885       -1.21812
C          3.63139       -1.25282       -0.16233
H          3.78010       -1.66701        0.82224
H          5.24369       -2.32231       -1.06929
C          5.11190       -1.47512       -3.62574
H          3.06603        0.28112       -3.63608
H          1.61072        0.91857       -1.73295
C          2.54186        1.49863        1.78784
C          3.25513        1.24051        2.93359
C          3.98242        2.25419        3.53081
C          3.99733        3.53044        2.98386
C          3.28665        3.76426        1.81424
C          2.56066        2.74960        1.21729
H          2.00491        2.92861        0.30976
H          3.30367        4.74665        1.37417
C          4.79511        4.61737        3.61597
H          4.54390        2.05918        4.42848
H          3.24764        0.24788        3.35373
H          1.19424       -0.59371        3.03572
H         -0.94251       -0.90771       -2.96152
C         -0.62015        1.88325       -2.19639
C         -0.90153        3.16501       -1.78789
C         -0.53070        4.24061       -2.57171
C          0.11969        4.04052       -3.78131
C          0.39713        2.74047       -4.18084
C          0.02204        1.66745       -3.39355
H          0.24569        0.66106       -3.70495
H          0.91254        2.57380       -5.11134
C          0.54834        5.19886       -4.61322
H         -0.74330        5.24465       -2.24635
H         -1.41441        3.31757       -0.85289
C         -2.88545        0.50703       -1.09153
C         -3.56333        0.74168       -2.26444
C         -4.94698        0.75567       -2.27087
C         -5.66068        0.53373       -1.10127
C         -4.95839        0.30834        0.07397
C         -3.57643        0.27968        0.07342
H         -3.03034        0.09571        0.98437
H         -5.50135        0.15925        0.99143
C         -7.14892        0.57653       -1.09718
H         -5.48094        0.94552       -3.18623
H         -3.00656        0.91831       -3.17157
Cl        -2.30506        2.62434        1.06623
H          2.77394       -6.02300       -1.18859
H          1.58769       -6.15845        1.23983
H          4.08339       -6.15235        0.86775
H          0.36922       -4.15811        1.80013
H         -3.53789       -4.93182       -0.07603
H         -2.54293       -2.41257       -1.48825
H         -4.47986       -3.69497        2.18806
H         -5.75995       -3.75756        0.13306
H          5.23163       -0.66207       -4.34316
H          6.10716       -1.77003       -3.29031
H          4.66800       -2.32323       -4.14892
H          4.86548        4.47709        4.69550
H          5.80824        4.63956        3.21223
H          4.34022        5.59294        3.43889
H          1.54919        5.52862       -4.33120
H          0.56559        4.93828       -5.67241
H         -0.13115        6.04360       -4.49167
H         -7.55932       -0.09673       -0.34315
H         -7.50626        1.58389       -0.87958
H         -7.55468        0.27647       -2.06434
