111
-148.55042129
P         -2.69794        2.02570       -0.33139
P          0.05165        0.58080        0.28491
C         -1.87780        2.29121        1.26390
C         -0.66417        1.68870        1.51269
C         -3.54373        3.57013       -0.90493
C         -3.05170        3.99697       -2.27019
C         -2.46317        3.08294        2.23138
H         -3.41619        3.54652        2.03563
C         -1.82823        3.26773        3.44754
H         -2.28537        3.88482        4.20376
C         -0.61163        2.66088        3.69421
H         -0.11893        2.80208        4.64209
C         -0.02883        1.86581        2.72379
H          0.91416        1.37393        2.90370
Pd        -1.15535        0.93531       -1.66714
Cl        -2.57688        1.04426       -3.39062
Cl         0.57658       -0.05879       -2.70843
C         -5.03839        3.18649       -0.86630
C         -4.13834        0.86872       -0.24225
H         -3.28535        3.23764       -3.01740
H         -3.52134        4.92926       -2.59272
H         -1.96897        4.14314       -2.27529
H         -5.57124        3.70817       -1.67458
H         -5.49375        3.54734        0.06765
H         -3.85451       -0.03745       -0.79508
C         -5.24632        1.64940       -0.97821
C         -4.47387        0.53169        1.19420
H         -3.31502        4.34662       -0.16250
H         -6.22914        1.35988       -0.57816
H         -5.26026        1.36210       -2.04004
H         -5.31374       -0.16434        1.25777
H         -3.61985        0.08120        1.70434
H         -4.74829        1.43197        1.74698
C         -1.15664       -3.73042        1.13715
C         -0.36219       -3.41991        0.00420
C         -0.05479       -2.09172       -0.23289
C         -0.42480       -1.10876        0.64513
C         -1.10524       -1.41427        1.79413
C         -1.46306       -2.72023        2.08490
O         -1.66917       -5.04347        1.31396
C          0.15614       -4.48441       -0.97527
H          0.46580       -1.79582       -1.12676
H         -1.35148       -0.61229        2.46685
C         -2.18632       -3.03005        3.40530
C          4.59247        0.87380        0.08586
C          3.80061        1.64254       -0.80538
C          2.42209        1.57018       -0.68888
C          1.83383        0.71026        0.20032
C          2.59340       -0.11440        0.98894
C          3.97688       -0.08167        0.93376
O          5.99657        1.07860        0.15026
C          4.41170        2.53847       -1.89464
H          1.78345        2.17548       -1.30884
H          2.08399       -0.79445        1.64997
C          4.78587       -1.06320        1.79613
C         -0.85866       -4.66342       -2.11456
C          1.50813       -4.04695       -1.58573
C          0.40356       -5.82542       -0.26116
C         -3.70471       -3.03439        3.17248
C         -1.73367       -4.38980        3.96759
C         -1.86086       -1.96415        4.47608
C         -2.91124       -5.27706        0.66189
H         -1.82686       -4.98147       -1.73576
H         -1.00534       -3.72512       -2.64917
H         -0.51460       -5.40942       -2.83041
H          1.94303       -4.85088       -2.17902
H          1.39511       -3.18858       -2.24609
H          2.22002       -3.78563       -0.80350
H         -0.51827       -6.24116        0.13690
H          0.82858       -6.56051       -0.94414
H          1.09594       -5.69459        0.56988
H         -4.04071       -2.06904        2.79636
H         -3.99083       -3.79029        2.44606
H         -4.24071       -3.23988        4.09874
H         -2.19895       -4.58947        4.93252
H         -2.00193       -5.20361        3.29800
H         -0.65259       -4.40920        4.10142
H         -0.78378       -1.84507        4.59128
H         -2.28986       -0.99563        4.22226
H         -2.27068       -2.25124        5.44418
H         -3.28262       -4.35694        0.20887
H         -2.78628       -6.03718       -0.10877
H         -3.63719       -5.64647        1.38614
C          6.39393        2.09208        1.06498
C          3.46907        2.62438       -3.11738
C          4.62199        3.95303       -1.33471
C          5.74707        1.96320       -2.40095
C          5.09587       -0.41223        3.15238
C          3.98572       -2.36256        2.04453
C          6.09282       -1.46884        1.09089
H          2.55830        3.17501       -2.88735
H          3.95415        3.14074       -3.94534
H          3.18917        1.62882       -3.46099
H          5.29663        3.94332       -0.48196
H          5.04502        4.61334       -2.09135
H          3.67597        4.38093       -1.00384
H          6.14593        2.56054       -3.22043
H          6.49581        1.94468       -1.61304
H          5.61334        0.94275       -2.75847
H          5.65998       -1.09099        3.79156
H          5.68043        0.49618        3.02875
H          4.17525       -0.14604        3.67127
H          3.11928       -2.18794        2.68078
H          3.64066       -2.79106        1.10412
H          4.60385       -3.10791        2.54448
H          6.63674       -2.21366        1.67129
H          6.75082       -0.61422        0.95371
H          5.88336       -1.89058        0.10840
H          7.07287        1.66903        1.80520
H          6.92258        2.88114        0.53056
H          5.52295        2.51348        1.56847
