111
-148.55369343
P         -2.41553        2.12758       -0.56581
P         -0.03404        0.30804        0.47391
C         -1.90885        2.21407        1.16911
C         -0.86056        1.43682        1.60997
C         -2.47363        3.82005       -1.31026
C         -1.28117        4.07047       -2.20793
C         -2.55550        3.06222        2.04460
H         -3.36813        3.67485        1.68899
C         -2.15466        3.11966        3.36837
H         -2.66017        3.77939        4.05452
C         -1.10765        2.33342        3.81037
H         -0.79659        2.37707        4.84114
C         -0.45767        1.48913        2.92761
H          0.35990        0.86666        3.25612
Pd        -1.07070        0.55479       -1.58077
Cl        -2.06286        1.10833       -3.51711
Cl         0.29184       -0.98731       -2.47074
C         -3.83741        3.83561       -2.02420
C         -4.16952        1.59533       -0.83033
H         -1.32111        5.06579       -2.65649
H         -0.34315        3.98557       -1.65407
H         -1.24829        3.34400       -3.02125
H         -3.69229        3.52164       -3.06708
H         -4.23262        4.86156       -2.07588
H         -4.13434        0.84610       -1.63272
C         -4.85264        2.88082       -1.33329
C         -4.77492        1.00468        0.42475
H         -2.47708        4.52345       -0.46721
H         -5.31496        3.39379       -0.47885
H         -5.68252        2.63265       -2.01223
H         -5.80642        0.68550        0.25868
H         -4.20393        0.13993        0.76858
H         -4.78227        1.73484        1.23540
C         -1.21804       -4.00948        1.28680
C          0.03963       -3.73913        0.68879
C          0.38784       -2.41788        0.46057
C         -0.42487       -1.39322        0.86790
C         -1.59601       -1.64663        1.53390
C         -2.00207       -2.94408        1.79870
O         -1.71952       -5.33786        1.32513
C          0.99981       -4.84874        0.23318
H          1.28753       -2.16979       -0.07512
H         -2.20016       -0.80848        1.83523
C         -3.29473       -3.17553        2.59677
C          4.37758        1.36715        0.07922
C          3.43280        1.86768       -0.85205
C          2.10056        1.53493       -0.67496
C          1.71070        0.67104        0.31514
C          2.63374        0.09743        1.15063
C          3.98210        0.39722        1.03594
O          5.70688        1.86739        0.07871
C          3.82283        2.77088       -2.03259
H          1.34286        1.95507       -1.31373
H          2.28241       -0.58402        1.90573
C          4.98871       -0.29847        1.96610
C          0.85757       -6.11008        1.10449
C          0.71756       -5.18433       -1.23922
C          2.46675       -4.38234        0.36365
C         -3.53770       -2.01522        3.58912
C         -4.48610       -3.25074        1.62977
C         -3.20626       -4.46738        3.42947
C         -2.47855       -5.70082        0.17829
H         -0.12927       -6.55421        1.00490
H          1.58860       -6.86672        0.82056
H          1.00997       -5.86887        2.15595
H          0.85184       -4.30353       -1.86679
H          1.39050       -5.96202       -1.59927
H         -0.30373       -5.53268       -1.37485
H          3.15383       -5.20017        0.14764
H          2.70001       -3.57731       -0.33133
H          2.66860       -4.03468        1.37617
H         -2.66040       -1.84946        4.21387
H         -3.77239       -1.08490        3.07422
H         -4.37872       -2.23750        4.24552
H         -4.56701       -2.33543        1.04441
H         -4.37769       -4.07904        0.93399
H         -5.42105       -3.38829        2.17235
H         -3.11218       -5.34373        2.79288
H         -2.34022       -4.43969        4.08990
H         -4.09701       -4.59997        4.04303
H         -3.46869       -6.03543        0.48757
H         -2.57548       -4.85042       -0.49787
H         -1.98877       -6.52329       -0.34250
C          5.89026        3.02070        0.89035
C          3.73147        4.24216       -1.60107
C          5.24366        2.45029       -2.53082
C          2.86629        2.54482       -3.22668
C          4.50469       -1.72004        2.32719
C          6.36072       -0.45724        1.28514
C          5.13163        0.51780        3.25940
H          3.98930        4.90725       -2.42485
H          2.72082        4.48582       -1.27412
H          4.40642        4.45316       -0.77493
H          5.49493        3.04522       -3.40853
H          5.98875        2.65969       -1.76741
H          5.32716        1.39762       -2.79893
H          3.21754        3.07673       -4.11048
H          2.80176        1.48607       -3.47632
H          1.86169        2.90745       -3.01498
H          3.60421       -1.69946        2.93897
H          4.29681       -2.29316        1.42470
H          5.26526       -2.25550        2.89504
H          6.81502        0.50803        1.07653
H          7.05035       -1.01505        1.91819
H          6.26046       -0.99042        0.34034
H          5.49014        1.52344        3.05220
H          5.83406        0.04414        3.94475
H          4.17153        0.60633        3.76730
H          6.63392        2.81235        1.65936
H          6.25508        3.84501        0.27777
H          4.94979        3.30689        1.36289
