111
-148.55147180
P         -2.70885        1.87638       -0.24915
P          0.13143        0.60192        0.31646
C         -1.86010        2.21587        1.32088
C         -0.60406        1.69410        1.54405
C         -3.79963        3.29066       -0.73722
C         -3.48948        3.76871       -2.13835
C         -2.46757        2.98005        2.29714
H         -3.45724        3.37170        2.12904
C         -1.80953        3.22513        3.49017
H         -2.28382        3.82203        4.25202
C         -0.54860        2.70351        3.70761
H         -0.03825        2.89170        4.63782
C          0.05473        1.93026        2.73211
H          1.03121        1.49975        2.89057
Pd        -1.06502        1.01067       -1.62047
Cl        -2.44687        1.04458       -3.38405
Cl         0.64207        0.14537       -2.80324
C         -5.21759        2.70245       -0.57695
C         -3.95619        0.51506       -0.12666
H         -4.10953        4.62391       -2.41756
H         -2.44179        4.06267       -2.23609
H         -3.67847        2.97658       -2.86410
H         -5.89227        3.16648       -1.31119
H         -5.62483        2.97017        0.40916
H         -3.59019       -0.31075       -0.75251
C         -5.22265        1.15490       -0.73149
C         -4.11960        0.06035        1.30711
H         -3.61894        4.09750       -0.01457
H         -6.11581        0.72039       -0.25910
H         -5.29585        0.89762       -1.79853
H         -3.17258       -0.29444        1.71869
H         -4.46206        0.88449        1.93573
H         -4.84930       -0.74852        1.39188
C         -1.31558       -3.65411        1.03558
C         -0.79950       -3.28157       -0.23161
C         -0.37335       -1.97718       -0.40399
C         -0.38631       -1.08334        0.63305
C         -0.77510       -1.46916        1.88859
C         -1.20813       -2.76169        2.13355
O         -1.97656       -4.90099        1.19460
C         -0.74024       -4.24559       -1.42563
H         -0.03651       -1.62709       -1.36427
H         -0.74817       -0.73808        2.67735
C         -1.57865       -3.16845        3.56845
C          4.66772        0.89428        0.06943
C          3.86969        1.98324       -0.36657
C          2.49284        1.87950       -0.24734
C          1.91126        0.72620        0.20938
C          2.67292       -0.36794        0.52716
C          4.05361       -0.33156        0.43138
O          6.07646        1.04148        0.17537
C          4.47752        3.26740       -0.95241
H          1.85090        2.70178       -0.51328
H          2.16857       -1.26130        0.85212
C          4.85656       -1.60753        0.72916
C          0.44712       -3.89260       -2.35078
C         -0.52959       -5.69719       -0.95927
C         -2.04234       -4.12912       -2.23269
C         -3.06275       -2.86249        3.82118
C         -1.29741       -4.66278        3.80997
C         -0.73159       -2.37987        4.59294
C         -3.37616       -4.84635        0.94831
H          0.29726       -2.93925       -2.85516
H          1.37649       -3.83845       -1.78463
H          0.57099       -4.64778       -3.12651
H         -0.42542       -6.37076       -1.80951
H          0.37036       -5.77744       -0.35042
H         -1.36788       -6.04812       -0.36273
H         -2.90688       -4.38569       -1.62496
H         -2.18171       -3.11000       -2.59305
H         -2.02767       -4.79358       -3.09613
H         -3.35437       -3.15283        4.83019
H         -3.26223       -1.79745        3.70762
H         -3.70062       -3.39583        3.12045
H         -1.92171       -5.29082        3.17931
H         -0.25661       -4.89779        3.58970
H         -1.49528       -4.93659        4.84600
H         -0.89830       -2.75448        5.60264
H          0.33123       -2.47501        4.37174
H         -0.98758       -1.32138        4.59875
H         -3.62996       -5.51709        0.12767
H         -3.91646       -5.17460        1.83611
H         -3.67851       -3.82973        0.69326
C          6.51574        1.50981        1.44408
C          5.78505        2.96698       -1.70800
C          3.50931        3.91201       -1.97034
C          4.73994        4.27024        0.18099
C          6.14842       -1.65656       -0.10670
C          5.19236       -1.65990        2.22703
C          4.03503       -2.86504        0.36164
H          5.61677        2.21967       -2.48273
H          6.17927        3.86531       -2.18236
H          6.55186        2.58584       -1.03815
H          3.98707        4.74541       -2.48489
H          3.19996        3.18687       -2.72269
H          2.61714        4.30521       -1.48544
H          5.15968        5.19771       -0.20771
H          3.81487        4.51113        0.70423
H          5.43723        3.86596        0.91094
H          5.92073       -1.57461       -1.16898
H          6.82049       -0.84265        0.15371
H          6.68475       -2.59131        0.05467
H          5.78937       -0.80193        2.52704
H          4.28208       -1.65621        2.82622
H          5.75314       -2.56206        2.47014
H          4.64496       -3.76417        0.44579
H          3.67057       -2.80266       -0.66339
H          3.17937       -2.99704        1.02227
H          7.06733        2.44137        1.31852
H          5.66363        1.67745        2.10402
H          7.18467        0.77596        1.89325
