87
-129.18025777
P         -1.72223       -0.44481        0.07267
P          1.55567        0.10276       -0.10736
C         -1.41986        0.84699       -1.15448
C          1.25585       -0.90496       -1.56535
C         -0.50452        0.74139       -2.19939
C         -0.24845        1.87837       -2.98986
C         -0.93543        3.05320       -2.73564
C         -1.83835        3.13883       -1.69850
C         -2.06481        2.03485       -0.89960
C          2.03428       -2.00767       -1.81819
C          1.80966       -2.76696       -2.94964
C          0.80273       -2.41292       -3.82344
C          0.01045       -1.30087       -3.59001
C          0.25229       -0.51583       -2.44487
Cl         1.34184        1.76993        2.59780
Cl        -1.69834        1.15580        2.93044
H         -2.34886        4.06631       -1.49744
H         -2.72796        2.10277       -0.05026
H          2.82836       -2.26787       -1.13865
H          2.41723       -3.63488       -3.14688
H         -0.73839        3.91572       -3.34955
H          0.62262       -3.00527       -4.70442
C         -0.66161       -4.74158       -0.94392
C         -1.48872       -4.03054       -1.80241
C         -1.80518       -2.71506       -1.48125
C         -1.30182       -2.13875       -0.33915
C         -0.51632       -2.86266        0.52712
C         -0.18425       -4.16816        0.21818
H         -0.40083       -5.75649       -1.19150
C         -1.99669       -4.65667       -3.05326
H         -2.43910       -2.13577       -2.13169
H         -0.19053       -2.41170        1.45104
H          0.43795       -4.74015        0.88702
C         -6.07013       -0.50812        1.40056
C         -5.75103       -0.12899        0.11148
C         -4.42861       -0.09618       -0.29027
C         -3.43817       -0.43715        0.60153
C         -3.75382       -0.83258        1.87994
C         -5.07708       -0.85937        2.30481
H         -7.09953       -0.53714        1.71491
H         -6.53133        0.13896       -0.58190
H         -4.16363        0.18710       -1.29668
H         -2.96565       -1.11515        2.55822
C         -5.41599       -1.29117        3.68810
C          4.71080       -1.73821        2.62619
C          3.67163       -2.52135        2.16504
C          2.71250       -1.97500        1.33451
C          2.80175       -0.65473        0.95940
C          3.83489        0.12703        1.42252
C          4.80192       -0.40015        2.27016
H          5.46089       -2.16162        3.27228
H          3.60664       -3.55771        2.45370
H          1.89872       -2.57774        0.97096
H          3.88609        1.16380        1.13555
C          5.92607        0.44649        2.75419
C          3.05613        4.12168       -1.61539
C          3.71599        2.95823       -1.95944
C          3.26324        1.74183       -1.48264
C          2.15892        1.70136       -0.66397
C          1.49998        2.85840       -0.32034
C          1.94348        4.08949       -0.78643
H          3.40011        5.06927       -1.99358
H          4.57841        2.99637       -2.60451
H          3.75661        0.82139       -1.75347
H          0.62594        2.80856        0.30648
C          1.20763        5.33606       -0.44227
Pd        -0.10471        0.40128        1.53425
C          0.76585        1.85620       -4.08076
C         -1.07236       -0.95620       -4.55201
H          1.38131        2.75668       -4.05552
H          1.43661        1.00161       -3.98668
H          0.28556        1.80440       -5.05854
H         -1.64215       -1.84366       -4.83104
H         -1.77237       -0.23778       -4.12370
H         -0.65934       -0.52277       -5.46364
H         -1.19613       -4.76181       -3.78671
H         -2.40447       -5.64892       -2.85498
H         -2.78807       -4.05639       -3.50431
H         -4.65123       -0.96856        4.39618
H         -6.36713       -0.86685        4.01262
H         -5.49343       -2.37770        3.74705
H          5.61741        1.48823        2.85319
H          6.27891        0.11208        3.73080
H          6.76678        0.40846        2.06006
H          1.88542        6.18833       -0.37736
H          0.45291        5.56080       -1.19720
H          0.70236        5.23998        0.51988
