171
-217.83718327
P         -1.43614        0.27818       -0.37974
P          1.65188       -0.69519        0.39947
C         -0.41671        1.13797       -1.59454
C          1.02983       -1.64526       -1.00772
C          0.48370        0.39227       -2.34510
C          1.31855        1.05064       -3.26845
C          1.17683        2.41720       -3.44508
C          0.26169        3.13868       -2.70726
C         -0.52772        2.49535       -1.77437
C          1.00975       -3.00663       -0.81504
C          0.50684       -3.84270       -1.79302
C          0.00783       -3.30183       -2.95822
C         -0.00001       -1.93266       -3.16449
C          0.53065       -1.08219       -2.17617
Cl         0.63443       -1.01753        3.45465
Cl        -2.36503       -1.51144        2.28914
C         -0.58986       -1.39539       -4.42156
C          2.33115        0.30016       -4.06097
H          0.16745        4.20196       -2.85530
H         -1.22626        3.05730       -1.17875
H          1.38477       -3.41373        0.11253
H          0.49774       -4.90962       -1.64102
H          1.79154        2.91660       -4.17443
H         -0.39673       -3.94566       -3.72098
C         -4.11798       -2.61556       -2.60734
C         -3.47088       -3.05896       -1.46111
C         -2.66816       -2.15513       -0.77895
C         -2.50728       -0.87417       -1.24247
C         -3.13519       -0.45998       -2.39179
C         -3.96319       -1.32502       -3.09782
H         -4.77289       -3.29248       -3.12393
H         -2.17124       -2.44159        0.12961
H         -2.95769        0.54003       -2.74639
C         -4.20778        3.28566        1.63994
C         -3.39893        2.49966        2.44955
C         -2.54284        1.59764        1.83292
C         -2.50596        1.47379        0.46382
C         -3.33230        2.24776       -0.31405
C         -4.18849        3.18084        0.25500
H         -4.87833        3.98194        2.10727
H         -1.91306        0.97204        2.43533
H         -3.31240        2.12706       -1.38309
C          5.46735       -2.78126        1.68951
C          4.60631       -2.32200        2.67880
C          3.43310       -1.69662        2.27928
C          3.14245       -1.53843        0.94866
C          4.00642       -1.99631       -0.01597
C          5.18886       -2.63388        0.33572
H          6.37499       -3.27018        1.98967
H          2.72132       -1.34440        3.00195
H          3.74931       -1.86421       -1.05418
C          2.88621        3.63362       -0.13483
C          3.65233        2.62673       -0.70603
C          3.22186        1.31610       -0.54309
C          2.08354        1.03740        0.17292
C          1.34963        2.04718        0.75235
C          1.73349        3.37358        0.59528
H          3.20770        4.65251       -0.24815
H          3.78057        0.49747       -0.96193
H          0.47241        1.79689        1.32065
Pd        -0.41258       -0.74644        1.49388
C         -5.14955       -4.72008       -0.62455
C         -3.66663       -4.50079       -0.97324
C         -2.81928       -4.79485        0.28102
C         -3.24171       -5.47733       -2.08531
H         -5.31866       -5.73199       -0.25687
H         -5.46917       -4.02160        0.14860
H         -5.78688       -4.56997       -1.49522
H         -2.95351       -5.82637        0.60592
H         -1.75831       -4.64682        0.08090
H         -3.10724       -4.14894        1.11016
H         -3.35349       -6.51144       -1.75994
H         -3.84408       -5.34366       -2.98297
H         -2.19815       -5.32030       -2.35624
C         -4.61260       -1.89716       -5.46989
C         -4.75171       -0.86553       -4.33324
C         -4.24401        0.49373       -4.85515
C         -6.23403       -0.72456       -3.94528
H         -5.02700       -2.86388       -5.18792
H         -5.14076       -1.56281       -6.36276
H         -3.56679       -2.04389       -5.73635
H         -4.77648        0.78341       -5.76095
H         -4.39910        1.28327       -4.12061
H         -3.18178        0.44885       -5.09430
H         -6.35421        0.00005       -3.14008
H         -6.83091       -0.39027       -4.79366
H         -6.63989       -1.67557       -3.60138
C         -3.26665        4.04665        4.43149
C         -3.51169        2.59556        3.97873
C         -2.48430        1.68686        4.68438
C         -4.92405        2.15277        4.40167
H         -3.98995        4.73032        3.98909
H         -3.34726        4.13416        5.51485
H         -2.27031        4.37856        4.14318
H         -2.64698        0.63900        4.43293
H         -1.46529        1.95402        4.40591
H         -2.56529        1.77977        5.76714
H         -5.11898        1.13109        4.07611
H         -5.03753        2.19004        5.48493
H         -5.68676        2.79497        3.96262
C         -6.02027        3.11658       -1.45329
C         -5.07476        4.03734       -0.65961
C         -4.18084        4.82782       -1.63428
C         -5.92486        5.03926        0.14462
H         -6.67292        3.69565       -2.10632
H         -5.46178        2.41774       -2.07458
H         -6.64704        2.53443       -0.77806
H         -3.47879        5.45757       -1.08790
H         -3.60351        4.16107       -2.27379
H         -4.77993        5.47009       -2.27951
H         -6.53757        5.64763       -0.52057
H         -6.59677        4.52289        0.82991
H         -5.29307        5.71451        0.72148
C          5.09136       -4.02957        4.45022
C          4.96187       -2.52326        4.15900
C          3.87930       -1.93871        5.08804
C          6.29635       -1.81758        4.46232
H          5.88220       -4.48225        3.85326
H          5.32422       -4.20533        5.50030
H          4.16020       -4.54679        4.21962
H          3.75867       -0.86799        4.92498
H          2.91701       -2.42292        4.92332
H          4.14674       -2.08500        6.13437
H          7.10877       -2.23248        3.86693
H          6.22760       -0.75305        4.23904
H          6.56473       -1.92563        5.51309
C          5.35690       -4.18249       -1.62674
C          6.11850       -3.15370       -0.76984
C          7.37299       -3.83321       -0.18840
C          6.56652       -1.97510       -1.65378
H          5.01032       -5.01340       -1.01259
H          4.48590       -3.73404       -2.10347
H          5.99582       -4.58591       -2.41210
H          8.02098       -4.19590       -0.98628
H          7.95282       -3.13530        0.41537
H          7.10430       -4.68808        0.43190
H          5.71456       -1.49195       -2.13074
H          7.08890       -1.22585       -1.05939
H          7.24117       -2.31171       -2.44074
C          5.68092        1.71352       -1.93996
C          4.94472        2.97809       -1.45662
C          5.88529        3.75257       -0.51414
C          4.60563        3.84760       -2.67977
H          5.94817        1.07410       -1.09898
H          5.06457        1.13826       -2.62981
H          6.60127        1.97595       -2.46146
H          6.82677        3.98813       -1.01009
H          5.43785        4.69077       -0.18848
H          6.11020        3.16243        0.37412
H          3.95342        3.30844       -3.36498
H          4.09712        4.76478       -2.38473
H          5.50843        4.12487       -3.22372
C          1.85503        5.18139        2.32081
C          0.96808        4.53909        1.23936
C         -0.34127        4.06800        1.89517
C          0.61311        5.58904        0.16915
H          1.33822        6.00636        2.81087
H          2.12242        4.44954        3.08286
H          2.77811        5.57089        1.89269
H         -0.88342        4.91188        2.32066
H         -0.99311        3.59498        1.16279
H         -0.14780        3.35834        2.69885
H          1.50502        5.99702       -0.30410
H         -0.00993        5.15071       -0.60897
H          0.06196        6.42025        0.60869
H          0.06291       -1.59006       -5.27364
H          2.64937       -0.60397       -3.53945
H         -0.75580       -0.31929       -4.36019
H         -1.55303       -1.86477       -4.62342
H          3.21968        0.90767       -4.23828
H          1.92860        0.00765       -5.03152
