58
-89.86757925
P          1.52858        0.29041        0.86406
C          1.56651        2.00172        0.31741
C          1.62471        2.25179       -1.03436
C          1.64549        3.55407       -1.49696
C          1.61496        4.60066       -0.59704
C          1.57078        4.34684        0.75983
C          1.54940        3.04202        1.21867
H          1.52087        2.83416        2.27576
H          1.66011        1.41923       -1.71860
C          3.15387       -0.45871        0.73576
C          4.26393        0.35390        0.69379
C          5.52432       -0.20742        0.59256
C          5.66236       -1.58017        0.53400
C          4.54550       -2.39131        0.57631
C          3.28649       -1.82719        0.67849
H          2.40664       -2.44989        0.70044
H          4.13858        1.42419        0.73511
C          0.92492        0.12156        2.59718
C          0.17495       -1.18777        2.81573
C         -1.31189       -1.11776        2.49742
P         -1.71843       -0.59810        0.77287
C         -3.23227       -1.41107        0.25583
C         -3.25912       -2.78337        0.16051
C         -4.41893       -3.42130       -0.24262
C         -5.54298       -2.67859       -0.54617
C         -5.51074       -1.30138       -0.44901
C         -4.34955       -0.66652       -0.04667
H         -4.30788        0.40791        0.02975
H         -2.36937       -3.34874        0.38965
C         -1.84488        1.18733        0.56266
C         -1.89802        1.66715       -0.72666
C         -1.95244        3.02920       -0.95756
C         -1.95605        3.90443        0.10965
C         -1.91116        3.42008        1.40189
C         -1.85684        2.05720        1.62869
H         -1.83472        1.67608        2.63553
H         -1.88249        0.96639       -1.54710
Pd         0.13628       -0.81712       -0.61158
Cl         1.79942       -0.87208       -2.12313
Cl        -1.33444       -1.65206       -2.09801
H         -1.78408       -2.09258        2.64295
H         -1.82329       -0.42935        3.17169
H          0.64488       -1.97318        2.20828
H          0.30196       -1.51936        3.85817
H          1.81447        0.19146        3.22868
H          0.29493        0.97619        2.84375
H          1.68521        3.74969       -2.55585
H          1.55005        5.16438        1.46159
H          6.39527        0.42613        0.55656
H          4.65296       -3.46235        0.52531
H         -4.44228       -4.49560       -0.32369
H         -6.38679       -0.72145       -0.68877
H         -1.98331        3.40452       -1.96713
H         -1.91495        4.10429        2.23448
H          1.62823        5.61752       -0.95405
H          6.64330       -2.01924        0.45213
H         -6.44614       -3.17460       -0.86241
H         -1.99125        4.96721       -0.06612
