111
-148.55287089
P         -1.58044        2.73335        0.88332
P         -0.52769       -0.22061        0.39650
C         -1.32925        1.61448        2.29045
C         -0.95088        0.30647        2.07140
C         -0.33175        4.09783        0.92871
C          0.59021        4.02254       -0.26981
C         -1.48766        2.07669        3.58151
H         -1.74004        3.11086        3.74901
C         -1.29668        1.21862        4.65059
H         -1.42489        1.57890        5.65827
C         -0.93682       -0.09636        4.42778
H         -0.78364       -0.76372        5.25988
C         -0.75290       -0.55034        3.13439
H         -0.43836       -1.56432        2.94685
Pd        -1.61993        1.32361       -0.95171
Cl        -2.98723        2.76428       -1.98392
Cl        -1.41154       -0.16000       -2.62703
C         -1.19414        5.37499        0.98390
C         -3.14069        3.72364        1.02121
H          0.01941        4.07552       -1.19916
H          1.30993        4.84445       -0.27298
H          1.15086        3.08598       -0.28408
H         -1.25865        5.79860       -0.02767
H         -0.69845        6.14572        1.59314
H         -3.52361        3.82200       -0.00256
C         -2.62882        5.08935        1.51226
C         -4.18112        3.06755        1.90380
H          0.22629        3.96709        1.86495
H         -2.62800        5.09665        2.61073
H         -3.32453        5.88842        1.21349
H         -4.43198        2.06796        1.54175
H         -3.82273        2.96354        2.92801
H         -5.10098        3.65562        1.93861
C         -0.63852       -4.74959       -0.06901
C         -1.63513       -3.96009       -0.69842
C         -1.60037       -2.58778       -0.51294
C         -0.58312       -1.99629        0.18826
C          0.44478       -2.74439        0.70105
C          0.46439       -4.12252        0.56444
O         -0.75815       -6.16485       -0.04909
C         -2.74286       -4.56889       -1.57313
H         -2.36302       -1.95471       -0.93164
H          1.24042       -2.22974        1.21247
C          1.65895       -4.91293        1.12113
C          3.65777        1.33804       -0.51084
C          3.17934        1.33550        0.82433
C          1.91863        0.81904        1.06942
C          1.12685        0.37401        0.04403
C          1.54597        0.46462       -1.25644
C          2.78799        0.98498       -1.57403
O          5.01330        1.66819       -0.77665
C          4.01391        1.86816        1.99890
H          1.53402        0.76050        2.07216
H          0.86526        0.14660       -2.02632
C          3.16141        1.16873       -3.05322
C         -2.24560       -5.83476       -2.29482
C         -3.96030       -4.90175       -0.69791
C         -3.18042       -3.57023       -2.66947
C          2.94394       -4.05336        1.09519
C          1.36840       -5.31493        2.57503
C          1.93905       -6.16475        0.27005
C         -1.49317       -6.67004        1.05837
H         -3.00819       -6.22850       -2.96628
H         -1.35548       -5.61549       -2.88353
H         -1.99232       -6.62106       -1.58812
H         -4.76700       -5.32469       -1.29609
H         -3.70445       -5.62041        0.07689
H         -4.33826       -4.00539       -0.20680
H         -3.86400       -4.04315       -3.37408
H         -3.69986       -2.71069       -2.24883
H         -2.31900       -3.20806       -3.23001
H          3.11564       -3.64194        0.10079
H          2.89194       -3.22811        1.80397
H          3.81445       -4.65094        1.36491
H          2.20411       -5.86910        3.00159
H          1.19790       -4.43282        3.19189
H          0.48170       -5.94075        2.64113
H          2.82437       -6.69090        0.62623
H          1.10598       -6.86246        0.30482
H          2.10272       -5.89140       -0.77180
H         -0.86400       -7.34711        1.63589
H         -1.82997       -5.85241        1.69690
H         -2.35590       -7.23098        0.69948
C          5.88662        0.54654       -0.80788
C          4.89818        0.73815        2.54697
C          4.88437        3.05902        1.55857
C          3.09959        2.37435        3.13795
C          1.90057        1.46770       -3.89739
C          4.11624        2.36159       -3.24114
C          3.81075       -0.12041       -3.57789
H          5.58093        0.36827        1.78596
H          5.49227        1.08248        3.39311
H          4.28795       -0.10072        2.88114
H          5.43051        3.47880        2.40294
H          5.61452        2.76044        0.81019
H          4.26694        3.84682        1.12808
H          3.68567        2.86401        3.91530
H          2.37513        3.09593        2.76203
H          2.55740        1.55829        3.61350
H          1.23739        0.60597       -3.95368
H          1.34107        2.30276       -3.47646
H          2.17211        1.72859       -4.91990
H          5.06536        2.19399       -2.73848
H          4.32790        2.53187       -4.29644
H          3.67796        3.27131       -2.83191
H          4.71350       -0.36188       -3.02175
H          4.07846       -0.02270       -4.62965
H          3.12646       -0.96293       -3.48038
H          6.68822        0.68951       -0.08335
H          5.34076       -0.36777       -0.57151
H          6.33448        0.45714       -1.79733
