87
-129.18390006
P         -1.60615       -0.32814       -0.38854
P          1.68895        0.25007        0.19012
C         -1.15654        0.91108       -1.60750
C          1.54288       -0.83651       -1.24957
C         -0.06334        0.68959       -2.43587
C          0.27739        1.67252       -3.38657
C         -0.49031        2.82226       -3.47312
C         -1.57236        3.02093       -2.64159
C         -1.90332        2.05915       -1.70772
C          2.23704       -2.02068       -1.16816
C          2.11977       -2.97401       -2.16025
C          1.28602       -2.74158       -3.23160
C          0.56779       -1.56292       -3.33299
C          0.70626       -0.57938       -2.33460
Cl         0.97717        0.02606        3.30755
Cl        -1.62952       -1.75822        2.50840
H         -2.15605        3.92362       -2.71786
H         -2.75173        2.20180       -1.05925
H          2.87112       -2.20575       -0.31669
H          2.66759       -3.89939       -2.08945
H         -0.22690        3.57114       -4.20064
H          1.17842       -3.48669       -4.00158
C         -2.39326       -4.30693       -2.42692
C         -1.52264       -4.25994       -1.34664
C         -1.30666       -3.03745       -0.72245
C         -1.94654       -1.90456       -1.16780
C         -2.81476       -1.95977       -2.23258
C         -3.04159       -3.16850       -2.86450
H         -2.55768       -5.24652       -2.92632
C         -0.79363       -5.47592       -0.89526
H         -0.62824       -2.97373        0.11156
H         -3.29725       -1.05641       -2.57174
H         -3.71605       -3.21913       -3.70349
C         -5.18085        1.10208        2.04770
C         -5.27956       -0.05817        1.30512
C         -4.20015       -0.49468        0.56045
C         -3.03420        0.23391        0.55916
C         -2.93252        1.38756        1.30195
C         -4.00367        1.83751        2.06310
H         -6.02129        1.44453        2.62705
H         -6.19582       -0.62549        1.30854
H         -4.25921       -1.40433       -0.01430
H         -2.01375        1.94857        1.29107
C         -3.88852        3.09537        2.85011
C          5.59189       -0.55591        2.39127
C          4.53482       -1.43257        2.53430
C          3.34344       -1.18957        1.87740
C          3.21766       -0.07420        1.08219
C          4.26989        0.80081        0.93876
C          5.47258        0.57745        1.59914
H          6.52247       -0.74522        2.89877
H          4.63604       -2.30392        3.16034
H          2.50497       -1.85786        1.99473
H          4.15780        1.66862        0.31144
C          6.61776        1.51228        1.42632
C          1.09147        4.69328       -0.55109
C          1.96601        3.98246       -1.34985
C          2.16572        2.63317       -1.12449
C          1.48765        2.00909       -0.10440
C          0.64337        2.72219        0.71558
C          0.42544        4.07703        0.49938
H          0.92067        5.73991       -0.73711
H          2.48195        4.47510       -2.15759
H          2.82983        2.05845       -1.75020
H          0.17196        2.22942        1.54853
C         -0.53547        4.83318        1.34737
Pd        -0.15471       -0.45480        1.43184
C          1.44233        1.50193       -4.29847
C         -0.33878       -1.36679       -4.49865
H          2.09358        0.69186       -3.96831
H          1.11164        1.27630       -5.31303
H          2.04289        2.41191       -4.33660
H          0.22864       -1.11145       -5.39435
H         -0.90436       -2.27593       -4.70762
H         -1.05918       -0.56891       -4.31567
H         -0.60174       -5.44181        0.17817
H         -1.36855       -6.37991       -1.10087
H          0.16648       -5.56253       -1.40600
H         -2.91451        3.16197        3.33717
H         -4.00383        3.96797        2.20559
H         -4.65152        3.14769        3.62793
H          7.23517        1.54857        2.32500
H          7.25073        1.19987        0.59456
H          6.27024        2.52621        1.22269
H         -0.24209        5.87990        1.43831
H         -1.53807        4.79949        0.91845
H         -0.58551        4.41434        2.35348
