111
-148.55304614
P         -1.57071        2.77788       -0.27314
P         -0.48211       -0.09085        0.49014
C         -1.71504        2.18103        1.43620
C         -1.30028        0.90432        1.75123
C         -0.34735        4.16221       -0.35740
C          0.84593        3.76725       -1.20116
C         -2.20406        3.00683        2.42829
H         -2.48665        4.01834        2.18724
C         -2.30343        2.54014        3.72771
H         -2.68960        3.18372        4.50122
C         -1.90215        1.25439        4.03602
H         -1.97454        0.89329        5.04870
C         -1.38826        0.43680        3.04560
H         -1.03792       -0.55754        3.27431
Pd        -1.16307        0.86407       -1.50206
Cl        -2.19865        1.73813       -3.28293
Cl        -0.57066       -1.07970       -2.47403
C         -1.16774        5.33536       -0.93160
C         -3.08788        3.65296       -0.87433
H          1.36435        2.90373       -0.77950
H          0.53120        3.49664       -2.21118
H          1.56489        4.58571       -1.28409
H         -0.95250        5.42138       -2.00545
H         -0.83609        6.28693       -0.48956
H         -3.17729        3.39748       -1.93811
C         -2.69719        5.13466       -0.73025
C         -4.34001        3.23838       -0.13153
H         -0.04870        4.36702        0.67907
H         -2.98897        5.48514        0.26916
H         -3.27173        5.75208       -1.43775
H         -4.50591        2.16139       -0.20825
H         -4.27042        3.48338        0.92844
H         -5.22302        3.74587       -0.52646
C         -1.06536       -4.59158        0.85391
C          0.24390       -4.05966        0.73673
C          0.38477       -2.68670        0.62930
C         -0.70100       -1.85381        0.69953
C         -1.95781       -2.35587        0.91394
C         -2.16888       -3.71967        1.04085
O         -1.27633       -5.99163        0.74250
C          1.49946       -4.94321        0.67268
H          1.35333       -2.24763        0.46916
H         -2.77936       -1.66210        0.96917
C         -3.58591       -4.23183        1.34312
C          3.82439        1.34415        0.10871
C          3.30884        0.40676       -0.82253
C          1.99671       -0.00673       -0.67530
C          1.23859        0.40239        0.38906
C          1.76161        1.23340        1.34417
C          3.06349        1.69619        1.25301
O          5.08244        1.96079       -0.12523
C          4.12285       -0.12450       -2.01194
H          1.52518       -0.62279       -1.42082
H          1.12557        1.53940        2.15590
C          3.60794        2.60976        2.36179
C          1.31650       -6.23358        1.49198
C          1.80179       -5.28396       -0.79463
C          2.71864       -4.20273        1.26883
C         -4.36785       -3.20109        2.18906
C         -4.33815       -4.45520        0.02253
C         -3.54358       -5.53780        2.15746
C         -1.51444       -6.43466       -0.58779
H          2.23022       -6.82737        1.49703
H          1.05844       -5.99916        2.52416
H          0.52361       -6.85483        1.08343
H          2.69891       -5.89696       -0.87702
H          0.97853       -5.82923       -1.25001
H          1.95792       -4.37585       -1.37644
H          2.49707       -3.83597        2.27070
H          3.57889       -4.86809        1.33861
H          3.01965       -3.35668        0.65328
H         -3.80386       -2.92253        3.07892
H         -4.58538       -2.29633        1.62357
H         -5.32347       -3.61229        2.51361
H         -5.35399       -4.80433        0.20579
H         -4.39682       -3.52901       -0.54865
H         -3.83577       -5.19390       -0.59727
H         -2.97342       -5.39918        3.07543
H         -4.54763       -5.86400        2.42757
H         -3.07754       -6.34227        1.59408
H         -0.74721       -7.15220       -0.87804
H         -2.48280       -6.93207       -0.63980
H         -1.50136       -5.58957       -1.27736
C          5.01150        3.15320       -0.89776
C          3.90229        0.79208       -3.22499
C          5.62115       -0.20725       -1.66919
C          3.66913       -1.55452       -2.38612
C          3.30520        4.07364        2.00675
C          2.93719        2.28507        3.71625
C          5.12230        2.40956        2.55193
H          4.45737        0.43364       -4.09142
H          2.84631        0.82898       -3.49208
H          4.22554        1.80895       -3.01574
H          5.77845       -0.82458       -0.78534
H          6.18786       -0.64217       -2.49209
H          6.03797        0.77588       -1.46665
H          4.32181       -1.98043       -3.14774
H          3.69889       -2.20982       -1.51641
H          2.65801       -1.56612       -2.78996
H          3.76751        4.35540        1.06392
H          2.23150        4.23172        1.90911
H          3.67629        4.74744        2.77853
H          1.88264        2.55720        3.72011
H          3.01913        1.22275        3.94467
H          3.41233        2.83897        4.52560
H          5.67587        2.69711        1.66169
H          5.34751        1.36453        2.76207
H          5.49611        3.01059        3.38050
H          3.97768        3.37344       -1.16531
H          5.42373        3.98446       -0.32603
H          5.60423        3.03824       -1.80507
