171
-217.83683478
P         -1.46698        0.25071       -0.39731
P          1.65737       -0.71241        0.42233
C         -0.43279        1.07027       -1.62702
C          1.03367       -1.70081       -0.95792
C          0.47134        0.29931       -2.34721
C          1.31357        0.92620       -3.28556
C          1.17767        2.28704       -3.50543
C          0.26046        3.03381       -2.79598
C         -0.53765        2.42184       -1.84952
C          1.01835       -3.05668       -0.72863
C          0.50018       -3.91881       -1.67568
C         -0.01711       -3.40965       -2.84720
C         -0.02797       -2.04672       -3.09081
C          0.51641       -1.16970       -2.13387
Cl         0.61088       -0.99362        3.44150
Cl        -2.37740       -1.48197        2.32520
C         -0.63327       -1.54403       -4.35487
C          2.32638        0.14666       -4.04922
H          0.17094        4.09240       -2.97702
H         -1.23785        3.00449       -1.27641
H          1.40589       -3.43810        0.20469
H          0.49225       -4.98113       -1.49422
H          1.79841        2.76159       -4.24617
H         -0.43246       -4.07397       -3.58623
C         -4.18589       -2.64153       -2.57761
C         -3.54943       -3.07419       -1.42120
C         -2.73671       -2.17008       -0.75127
C         -2.55448       -0.90069       -1.23800
C         -3.17302       -0.49679       -2.39583
C         -4.01143       -1.36177       -3.08943
H         -4.84787       -3.31809       -3.08564
H         -2.25050       -2.44586        0.16637
H         -2.98026        0.49485       -2.76596
C         -4.17398        3.32813        1.60062
C         -3.37868        2.53265        2.41446
C         -2.54366        1.60784        1.80270
C         -2.51502        1.47128        0.43471
C         -3.32980        2.25315       -0.34734
C         -4.16311        3.20981        0.21658
H         -4.82683        4.04354        2.06409
H         -1.92377        0.97469        2.40761
H         -3.31861        2.12008       -1.41513
C          5.52906       -2.65510        1.75244
C          4.63230       -2.24937        2.73291
C          3.43881       -1.67339        2.31989
C          3.16108       -1.52053        0.98579
C          4.05614       -1.93428        0.02916
C          5.26654       -2.50941        0.39613
H          6.46055       -3.09775        2.05425
H          2.70464       -1.34961        3.03359
H          3.79789       -1.80637       -1.00853
C          2.86361        3.60913       -0.22550
C          3.63480        2.59100       -0.76896
C          3.20881        1.28412       -0.57228
C          2.07085        1.01818        0.14909
C          1.33065        2.03947        0.69958
C          1.70926        3.36311        0.50736
H          3.18291        4.62582       -0.36230
H          3.77323        0.45879       -0.96876
H          0.45381        1.79971        1.27311
Pd        -0.43125       -0.76626        1.46829
C         -5.25191       -4.69880       -0.56127
C         -3.76560       -4.50517       -0.91054
C         -2.92404       -4.79048        0.34963
C         -3.35176       -5.50517       -2.00587
H         -5.43544       -5.70248       -0.17824
H         -5.56331       -3.98411        0.20032
H         -5.88563       -4.55355       -1.43541
H         -1.86099       -4.65864        0.14904
H         -3.20526       -4.12854        1.16837
H         -3.07154       -5.81520        0.68994
H         -3.95039       -5.37786       -2.90695
H         -2.30551       -5.36674       -2.27674
H         -3.47835       -6.53229       -1.66420
C         -4.64039       -1.95988       -5.45969
C         -4.78609       -0.91354       -4.33757
C         -4.26683        0.43680       -4.87112
C         -6.27135       -0.76034       -3.96581
H         -5.16174       -1.63650       -6.36056
H         -3.59279       -2.11101       -5.71667
H         -5.05771       -2.92243       -5.16785
H         -4.79084        0.71911       -5.78414
H         -4.42293        1.23534       -4.14651
H         -3.20309        0.38319       -5.10184
H         -6.68593       -1.70510       -3.61518
H         -6.39530       -0.02580       -3.17019
H         -6.85805       -0.43252       -4.82376
C         -2.47310        1.71944        4.65267
C         -3.48166        2.64605        3.94312
C         -4.90230        2.24195        4.37691
C         -3.19912        4.09498        4.38079
H         -2.54710        1.82389        5.73487
H         -2.66168        0.67358        4.41121
H         -1.44922        1.95978        4.36750
H         -5.12383        1.22241        4.06184
H         -5.00943        2.29197        5.46031
H         -5.65125        2.89861        3.93558
H         -2.19492        4.39849        4.08840
H         -3.90529        4.79234        3.93212
H         -3.27612        4.19547        5.46329
C         -5.85819        5.10521        0.09627
C         -5.03042        4.08060       -0.70263
C         -5.99597        3.17718       -1.49210
C         -4.11870        4.84613       -1.68076
H         -6.54020        4.60736        0.78527
H         -5.21160        5.77035        0.66847
H         -6.45839        5.72255       -0.57206
H         -6.63572        2.61252       -0.81420
H         -6.63546        3.76757       -2.14802
H         -5.45335        2.46303       -2.11010
H         -3.55578        4.16337       -2.31621
H         -4.70302        5.49807       -2.32981
H         -3.40325        5.46309       -1.13715
C          5.19673       -3.93924        4.49795
C          4.97835       -2.44134        4.21632
C          3.84839       -1.93286        5.13353
C          6.26234       -1.65733        4.54380
H          4.30298       -4.51118        4.24924
H          6.02290       -4.33701        3.90981
H          5.42455       -4.10922        5.55009
H          4.10633       -2.07753        6.18247
H          3.66862       -0.86878        4.98203
H          2.91868       -2.46944        4.94556
H          7.10650       -2.01627        3.95618
H          6.13097       -0.59720        4.32775
H          6.52281       -1.75763        5.59732
C          7.61172       -2.18353       -0.42780
C          6.30172       -2.96385       -0.64219
C          5.81236       -2.70791       -2.08176
C          6.56047       -4.47235       -0.47596
H          8.02766       -2.37186        0.56125
H          8.36164       -2.46995       -1.16496
H          7.44034       -1.11121       -0.51974
H          5.63153       -1.64683       -2.25239
H          6.55672       -3.03560       -2.80732
H          4.89083       -3.25290       -2.28589
H          7.27851       -4.82874       -1.21436
H          6.95841       -4.69961        0.51233
H          5.63691       -5.03695       -0.60283
C          4.60047        3.77971       -2.75656
C          4.93099        2.92376       -1.52143
C          5.66017        1.64794       -1.98789
C          5.87366        3.70403       -0.58623
H          4.09949        4.70511       -2.47473
H          5.50617        4.04213       -3.30304
H          3.94448        3.23685       -3.43529
H          5.92506        1.01671       -1.13985
H          5.04011        1.06733       -2.66987
H          6.58155        1.89847       -2.51337
H          6.09521        3.12222        0.30835
H          6.81657        3.93086       -1.08353
H          5.42896        4.64703       -0.27069
C          0.59028        5.56699        0.01994
C          0.93747        4.54271        1.11741
C          1.81455        5.21103        2.19099
C         -0.37694        4.08587        1.77247
H          1.48562        5.96735       -0.45331
H         -0.02332        5.10906       -0.75440
H          0.03199        6.40608        0.43482
H          2.07545        4.49764        2.97255
H          2.74122        5.59065        1.76178
H          1.29308        6.04710        2.65670
H         -0.92503        4.93881        2.17157
H         -1.02054        3.59371        1.04559
H         -0.19008        3.39647        2.59512
H          0.00836       -1.76343       -5.20941
H          1.91560       -0.20411       -4.99672
H         -0.79698       -0.46634       -4.32175
H         -1.59956       -2.01747       -4.53110
H          2.66271       -0.72343       -3.48307
H          3.20455        0.75460       -4.27128
