111
-148.55066820
P         -2.55690        2.11203        0.86307
P          0.12093        0.44305        0.48364
C         -1.46726        1.80081        2.28330
C         -0.28686        1.11294        2.10415
C         -3.46164        3.71422        1.08556
C         -3.30818        4.61683       -0.11830
C         -1.81942        2.23810        3.54473
H         -2.75203        2.75844        3.68805
C         -0.98219        1.99288        4.61957
H         -1.25770        2.33490        5.60383
C          0.20344        1.30845        4.43370
H          0.85398        1.11526        5.27074
C          0.55013        0.86256        3.17107
H          1.46389        0.31205        3.00927
Pd        -1.28830        1.54311       -0.99174
Cl        -2.91137        2.39816       -2.27173
Cl         0.14663        0.89171       -2.59760
C         -4.91282        3.25734        1.34331
C         -3.98230        0.93479        0.77749
H         -3.75080        4.15570       -1.00204
H         -3.80611        5.57739        0.03359
H         -2.25598        4.81078       -0.33892
H         -5.61006        4.01646        0.95965
H         -5.10198        3.20256        2.42547
H         -3.86514        0.36014       -0.15177
C         -5.20466        1.87219        0.70044
C         -3.98605        0.00884        1.97401
H         -3.03368        4.19807        1.97368
H         -6.06689        1.39266        1.18637
H         -5.49778        2.01525       -0.35010
H         -3.05872       -0.56523        2.02992
H         -4.07675        0.57771        2.90126
H         -4.81914       -0.69700        1.93403
C         -1.20902       -3.89903        0.12027
C         -1.13429       -3.30137        1.40509
C         -0.72331       -1.98159        1.49280
C         -0.46832       -1.24622        0.36524
C         -0.64696       -1.78847       -0.87931
C         -1.05394       -3.10016       -1.04090
O         -1.39508       -5.30187       -0.00054
C         -1.44831       -4.07749        2.69372
H         -0.57980       -1.51205        2.44967
H         -0.43888       -1.16665       -1.73223
C         -1.27805       -3.63477       -2.46334
C          4.53205        0.65634       -0.62731
C          3.83140       -0.57246       -0.72478
C          2.49119       -0.58833       -0.38106
C          1.86730        0.53033        0.10519
C          2.56253        1.69576        0.29258
C          3.90887        1.78042       -0.02558
O          5.84226        0.77051       -1.16360
C          4.48044       -1.86895       -1.23404
H          1.90658       -1.48246       -0.50638
H          2.03183        2.54623        0.68462
C          4.66213        3.09079        0.25301
C         -2.54878       -5.12671        2.45225
C         -0.16846       -4.75927        3.20047
C         -1.96827       -3.12673        3.79579
C          0.05277       -4.16341       -3.02031
C         -2.34321       -4.74575       -2.48080
C         -1.78925       -2.50766       -3.39068
C         -0.18195       -6.04276       -0.04989
H         -2.22457       -5.88584        1.74465
H         -2.81747       -5.63333        3.37886
H         -3.44557       -4.65632        2.05030
H          0.60882       -4.02135        3.39781
H         -0.35697       -5.30672        4.12364
H          0.22057       -5.46182        2.46754
H         -2.29267       -3.69053        4.67015
H         -1.19704       -2.43475        4.13065
H         -2.81935       -2.54794        3.43909
H         -0.07181       -4.54514       -4.03327
H          0.80008       -3.37068       -3.04816
H          0.44732       -4.96746       -2.40343
H         -2.54580       -5.07849       -3.49849
H         -2.02284       -5.61297       -1.90923
H         -3.27709       -4.38799       -2.04853
H         -1.02596       -1.75167       -3.56813
H         -2.07516       -2.90659       -4.36354
H         -2.66193       -2.01737       -2.96005
H         -0.11097       -6.56928       -1.00139
H          0.67546       -5.37772        0.06169
H         -0.17457       -6.78319        0.74990
C          5.87635        1.17148       -2.52762
C          4.31341       -1.95305       -2.75893
C          5.97121       -1.92914       -0.85604
C          3.80340       -3.10574       -0.59788
C          6.14049        2.82117        0.58787
C          4.55543        4.00911       -0.97388
C          4.05259        3.82252        1.47057
H          4.74602       -2.87383       -3.14936
H          3.25850       -1.93275       -3.03176
H          4.79840       -1.11642       -3.25582
H          6.09767       -1.83164        0.22169
H          6.41622       -2.87436       -1.16588
H          6.53402       -1.12949       -1.33085
H          3.78284       -3.02107        0.48832
H          2.78128       -3.23432       -0.95126
H          4.34485       -4.01665       -0.85218
H          6.22407        2.13621        1.43097
H          6.66423        2.37749       -0.25511
H          6.65805        3.74421        0.84789
H          4.99659        3.54587       -1.85297
H          3.51235        4.22614       -1.20280
H          5.06724        4.95519       -0.79948
H          3.99505        3.15877        2.33292
H          3.05227        4.19628        1.25736
H          4.66160        4.68201        1.74991
H          6.44743        2.09483       -2.62304
H          6.37022        0.40376       -3.12296
H          4.86419        1.32833       -2.90282
