100
-131.97279372
C         -1.68181        3.80728       -1.44541
C         -2.37626        2.51568       -1.43526
C         -0.28509        3.55139       -1.50743
C         -0.04831        2.08622       -1.60763
C          1.13531        1.54301       -2.32804
C         -1.41168        1.45866       -1.55229
C         -1.79386        0.05277       -1.99049
C         -0.87261       -0.56144       -3.02497
Cl         1.14523       -0.76051        2.75209
Cl        -1.89196       -1.19927        2.41731
C          3.29043        0.62666       -3.86540
C          2.54084        1.69933       -4.30608
C          2.98042        0.02186       -2.65580
C          1.49033        2.15493       -3.54996
C          1.91636        0.45016       -1.89722
H         -3.45953        2.39300       -1.47461
H          0.49170        4.31362       -1.60460
H         -0.66202        0.14103       -3.83481
H          0.07647       -0.84437       -2.57290
H         -1.30208       -1.45981       -3.47412
H          4.12385        0.27189       -4.44942
H          2.78276        2.17881       -5.24080
H          3.60583       -0.77967       -2.29886
H          0.90112        2.98641       -3.89659
H         -2.15664        4.79173       -1.43397
P          1.76947       -0.31134       -0.26203
H         -2.79598        0.11709       -2.43192
P         -2.01074       -1.06433       -0.53204
H         -2.99527       -3.04754       -1.53062
C         -1.71083       -3.87306       -0.01191
C         -2.02744       -2.82758       -1.08478
C         -2.83228       -4.01034        1.01885
H         -3.42789        0.28438        0.84254
C         -4.81850       -0.31857       -0.68438
C         -3.62835       -0.60010        0.23845
H         -4.54451        0.51898       -1.34773
C         -5.17527       -1.51595       -1.56470
H          3.52114       -1.91909       -0.63743
H          2.56526        0.61490        1.82777
C          3.59926        3.12241        1.31804
C          2.74444        2.22267        0.40678
C          2.89188        0.74423        0.79057
C          4.36670        0.32540        0.69512
C          5.25419        1.21398        1.59164
C          5.08099        2.70638        1.24753
H          3.24368        3.03331        2.35202
H          3.47337        4.18132        1.05222
H          3.07353        2.34887       -0.63215
H          1.68921        2.51908        0.41126
H          4.48841       -0.73281        0.95849
H          4.69189        0.41084       -0.34849
H          4.98324        1.05072        2.64218
H          6.30885        0.91543        1.51144
H          5.46196        2.89172        0.23532
H          5.69353        3.33333        1.91087
C          2.38382       -4.27554       -1.53259
C          1.75723       -2.87189       -1.40507
C          2.47386       -2.03720       -0.33681
C          2.45530       -2.76722        1.01391
C          3.10524       -4.15917        0.90135
C          2.39866       -5.00479       -0.17481
H          3.41161       -4.17983       -1.90419
H          1.85348       -4.87016       -2.28954
H          0.70398       -2.96098       -1.12338
H          1.76088       -2.35054       -2.37156
H          2.94004       -2.16096        1.79024
H          1.41640       -2.88119        1.34303
H          4.16418       -4.04516        0.63831
H          3.09660       -4.67317        1.87275
H          1.36856       -5.20495        0.14372
H          2.87272       -5.99214       -0.26809
H         -0.79932       -3.54394        0.51776
C         -1.42463       -5.23115       -0.66191
H         -3.89730       -1.38935        0.93754
C         -6.03027        0.12424        0.14192
H         -1.30136       -2.90624       -1.89376
H         -2.96777       -3.09829        1.59649
H         -2.62150       -4.81283        1.72745
H         -3.77987       -4.24270        0.53208
H         -1.14711       -5.98085        0.08069
H         -2.30850       -5.59832       -1.18444
H         -0.61758       -5.16683       -1.39294
H         -4.38482       -1.74268       -2.28014
H         -5.34915       -2.40458       -0.95712
H         -6.08488       -1.32849       -2.13773
H         -6.34563       -0.67192        0.81703
H         -5.80044        0.99975        0.75154
H         -6.88128        0.37264       -0.49425
Fe        -1.06653        2.69036        0.13861
C         -2.47115        3.14486        1.59625
C         -1.55705        4.25234        1.38202
C         -0.20912        3.78598        1.65026
C         -0.29568        2.39111        2.03527
C         -1.69073        2.00203        2.01853
H         -3.55870        3.17911        1.49903
H         -1.83799        5.27022        1.10117
H          0.69917        4.39211        1.61339
H          0.52566        1.74869        2.35792
H         -2.07002        1.02280        2.30882
Pd        -0.22370       -0.70148        0.94943
