171
-217.83791241
P         -1.51718        0.21440       -0.32467
P          1.66316       -0.77861        0.28754
C         -0.56987        0.87347       -1.70410
C          0.90803       -1.87282       -0.93195
C          0.23757        0.01053       -2.43458
C          0.98959        0.52546       -3.50812
C          0.86391        1.86620       -3.83518
C          0.04062        2.70260       -3.11011
C         -0.67512        2.19998       -2.04169
C          0.91106       -3.20332       -0.58407
C          0.29536       -4.13703       -1.39446
C         -0.34266       -3.72193       -2.54306
C         -0.37304       -2.38471       -2.90147
C          0.27637       -1.43522       -2.09026
Cl         0.83805       -0.61509        3.45911
Cl        -2.19164       -1.36078        2.55701
C         -1.10688       -1.98960       -4.13360
C          1.89396       -0.35235       -4.30064
H         -0.04248        3.74423       -3.37412
H         -1.32585        2.84243       -1.47395
H          1.39054       -3.50787        0.33477
H          0.30484       -5.18007       -1.12332
H          1.41414        2.25270       -4.67596
H         -0.83758       -4.44144       -3.17354
C         -4.63182       -2.56929       -2.08813
C         -4.39023       -1.34635       -2.70463
C         -3.42386       -0.51940       -2.14497
C         -2.75820       -0.89017       -1.00149
C         -3.02103       -2.09433       -0.40143
C         -3.95641       -2.96630       -0.93955
H         -5.36990       -3.22518       -2.50759
H         -3.18005        0.41886       -2.61381
H         -2.50678       -2.34726        0.50826
C         -3.72643        3.64765        1.71328
C         -2.80889        2.92771        2.46564
C         -2.12955        1.88935        1.84428
C         -2.37772        1.56356        0.53058
C         -3.31346        2.27238       -0.18335
C         -3.98971        3.34454        0.38401
H         -4.25166        4.45705        2.18422
H         -1.40771        1.32617        2.40355
H         -3.52218        1.98797       -1.19948
C          5.54202       -2.70723        1.62004
C          5.21744       -2.68780        0.26881
C          4.00842       -2.11098       -0.10100
C          3.17137       -1.57676        0.84785
C          3.50931       -1.60645        2.17577
C          4.70305       -2.17609        2.59291
H          6.47603       -3.14778        1.91417
H          3.70591       -2.07632       -1.13386
H          2.82630       -1.18828        2.89251
C          2.99104        3.40592       -0.83338
C          3.61643        2.31075       -1.41516
C          3.15236        1.04575       -1.07803
C          2.11493        0.89417       -0.19129
C          1.52193        1.98927        0.39237
C          1.95233        3.27308        0.08119
H          3.34298        4.38707       -1.09053
H          3.60957        0.16466       -1.49263
H          0.73013        1.84447        1.10576
Pd        -0.31893       -0.64984        1.52993
C         -4.22262       -0.57407       -5.09927
C         -5.18239       -0.86319       -3.93054
C         -5.93579        0.42781       -3.56044
C         -6.21044       -1.91259       -4.39521
H         -4.76802       -0.19690       -5.96425
H         -3.47739        0.17226       -4.82688
H         -3.70100       -1.47960       -5.40586
H         -5.24191        1.22381       -3.29327
H         -6.54089        0.78088       -4.39530
H         -6.59760        0.25740       -2.71152
H         -5.71992       -2.84444       -4.67609
H         -6.93659       -2.12519       -3.61081
H         -6.76134       -1.55502       -5.26509
C         -5.26847       -5.14847       -0.98447
C         -4.21904       -4.30503       -0.23588
C         -4.73325       -4.03305        1.19018
C         -2.90654       -5.10760       -0.16766
H         -6.22618       -4.63069       -1.03346
H         -4.94122       -5.36954       -2.00030
H         -5.43388       -6.09874       -0.47691
H         -5.64969       -3.44410        1.16288
H         -4.94527       -4.96518        1.71338
H         -3.99985       -3.48112        1.77686
H         -3.06178       -6.06995        0.31952
H         -2.51882       -5.29455       -1.16864
H         -2.14218       -4.57036        0.39260
C         -3.92356        3.11389        4.70214
C         -2.59133        3.27250        3.94631
C         -2.09654        4.72489        4.06576
C         -1.55069        2.34236        4.60254
H         -4.29952        2.09541        4.60667
H         -3.79850        3.32986        5.76302
H         -4.68395        3.78929        4.31194
H         -2.82630        5.42686        3.66405
H         -1.91545        4.99113        5.10695
H         -1.16605        4.86027        3.51666
H         -1.86948        1.30122        4.55539
H         -0.58085        2.42693        4.11431
H         -1.41241        2.59669        5.65313
C         -4.37183        4.54296       -1.79173
C         -5.01378        4.12128       -0.45492
C         -5.49555        5.39346        0.26912
C         -6.22705        3.21441       -0.72359
H         -5.06483        5.13880       -2.38545
H         -3.47716        5.14048       -1.61704
H         -4.08612        3.67878       -2.38988
H         -6.02293        5.14773        1.19049
H         -4.65653        6.04496        0.51330
H         -6.18336        5.95892       -0.35953
H         -6.96998        3.72434       -1.33659
H         -5.92758        2.30525       -1.24256
H         -6.70277        2.92051        0.21183
C          6.43638       -4.76044       -0.44723
C          6.18934       -3.27424       -0.76483
C          7.51897       -2.50024       -0.70556
C          5.62745       -3.16921       -2.19686
H          6.88662       -4.88666        0.53662
H          5.49950       -5.31713       -0.46063
H          7.10660       -5.20965       -1.17995
H          8.22561       -2.88127       -1.44265
H          7.35721       -1.44169       -0.90849
H          7.98291       -2.58516        0.27643
H          4.68584       -3.71025       -2.28948
H          5.45815       -2.12989       -2.47765
H          6.32485       -3.59495       -2.91815
C          5.10411       -0.74342        4.60991
C          5.04408       -2.19176        4.08967
C          6.40293       -2.86596        4.35895
C          3.95266       -2.96881        4.84954
H          5.85350       -0.16952        4.06518
H          4.14538       -0.24014        4.49002
H          5.36283       -0.71922        5.66828
H          6.40143       -3.90123        4.01840
H          7.21064       -2.33615        3.85429
H          6.62767       -2.87016        5.42548
H          4.17584       -3.01380        5.91527
H          2.97742       -2.49743        4.73357
H          3.87675       -3.98988        4.47642
C          5.90978        3.30715       -1.60993
C          4.81507        2.51777       -2.35264
C          4.36374        3.30319       -3.59598
C          5.41779        1.17420       -2.80934
H          6.78902        3.44135       -2.23983
H          5.55800        4.29533       -1.31632
H          6.21848        2.77948       -0.70763
H          3.60215        2.75046       -4.14354
H          3.94435        4.27071       -3.32239
H          5.20090        3.47955       -4.27116
H          4.68879        0.58233       -3.36117
H          6.27332        1.33633       -3.46480
H          5.76172        0.58995       -1.95597
C         -0.16731        4.57198        0.46172
C          1.33061        4.48216        0.79756
C          1.99978        5.80460        0.37563
C          1.51437        4.30926        2.31664
H         -0.63755        5.40523        0.98338
H         -0.31351        4.72140       -0.60736
H         -0.68802        3.66192        0.75084
H          3.06425        5.79805        0.60941
H          1.87956        5.98178       -0.69301
H          1.55216        6.64822        0.90098
H          1.12179        5.16895        2.85889
H          0.99983        3.42025        2.67757
H          2.57021        4.20756        2.56663
H         -2.08957       -2.46235       -4.15746
H          2.73381        0.21241       -4.70762
H         -0.56455       -2.29894       -5.02819
H         -1.25575       -0.91049       -4.18325
H          1.36223       -0.80603       -5.13778
H          2.30276       -1.15478       -3.68436
