72
-98.09591957
Fe         0.02789        2.79382        0.02369
P          1.86698       -0.08040       -0.02064
P         -1.86770       -0.04475        0.05938
C          1.41351        1.53253        0.73312
C          0.38359        1.74098        1.73664
C          0.32622        3.16191        2.02913
C          1.35089        3.82767        1.24610
C          2.03091        2.81958        0.45151
C         -1.41345        1.57631       -0.67376
C         -1.97575        2.87287       -0.32651
C         -1.31427        3.88809       -1.12813
C         -0.32316        3.21634       -1.94916
C         -0.41716        1.78724       -1.70792
C          3.19663       -0.88266        1.01405
C          4.48392       -0.70832        0.17928
C          2.87548        0.23572       -1.55386
C          4.30011        0.31384       -0.97165
C         -3.23466       -0.76004       -0.97707
C         -4.41806        0.11818       -0.53534
C         -2.91670        0.25986        1.56654
C         -4.32546        0.50375        0.97152
H         -0.27364        0.97392        2.14414
H         -0.35291        3.64190        2.73752
H          1.57631        4.89626        1.25786
H          2.84911        2.99806       -0.24874
H         -2.76577        3.04870        0.40637
H          0.18120        1.01136       -2.18060
Cl         1.59626       -3.00917       -0.43369
Cl        -1.60977       -3.05184        0.31343
Pd        -0.01911       -1.49162       -0.01303
H          2.93370       -1.94367        1.10064
C          3.30370       -0.28203        2.41378
H          2.55781        1.19802       -1.97317
C          2.75782       -0.86837       -2.60497
H          4.79250       -1.67735       -0.23900
H          5.31002       -0.40011        0.83549
H          4.49808        1.32866       -0.59646
H          5.04076        0.14153       -1.76701
H         -1.51094        4.96201       -1.10093
H          0.33983        3.69763       -2.67204
H          4.26078       -0.58164        2.86310
H          3.58351       -0.76590       -3.32273
H         -3.39277       -1.79258       -0.64466
C         -2.95250       -0.72898       -2.48037
H         -2.53156        1.16018        2.05963
C         -2.90510       -0.91918        2.53816
H         -5.37347       -0.38166       -0.75894
H         -4.41498        1.02917       -1.15193
H         -4.63028        1.55059        1.11766
H         -5.05527       -0.08557        1.54420
H         -3.90654       -0.67607       -3.02325
H         -3.18195       -1.82659        1.98566
C          2.16347       -0.69619        3.32793
H          1.20205       -0.41025        2.90626
H          2.14040       -1.77878        3.46697
H          2.23931       -0.23720        4.31626
C          1.43828       -0.88642       -3.35485
H          1.27795        0.04495       -3.90122
H          1.39095       -1.70209       -4.08005
H          0.60196       -1.01514       -2.67029
C         -2.15996       -1.93411       -2.96388
H         -1.23282       -2.05188       -2.40506
H         -2.72513       -2.85775       -2.82523
H         -1.90295       -1.86126       -4.02301
C         -1.58399       -1.12872        3.25795
H         -0.78176       -1.34650        2.55417
H         -1.29600       -0.24267        3.82659
H         -1.62967       -1.96540        3.95886
H          3.35592        0.81097        2.32682
H          2.92770       -1.83408       -2.11227
H         -2.43139        0.20517       -2.72568
H         -3.70560       -0.77743        3.27777
