105
-153.06166677
Cl         0.27432        3.53145        1.74269
Pd        -0.14457        1.93430        0.21650
P         -0.71332        0.22451       -1.32809
N          0.15113       -1.20367       -1.92556
C          0.22972       -2.52237       -1.48766
C         -0.11344       -2.96822       -0.18146
C          0.18676       -4.29686        0.19340
C          0.04045       -4.71474        1.63889
C         -0.12704       -6.22976        1.82032
C          0.98578       -6.97954        1.08207
C          0.97185       -6.64879       -0.41993
C          0.69715       -5.19858       -0.74385
C          0.95571       -4.75711       -2.03417
C          0.74850       -3.45027       -2.39033
H          0.99427       -3.12090       -3.38515
H          1.34680       -5.45503       -2.75524
H          1.92764       -6.93518       -0.87709
H          1.95643       -6.69691        1.50881
H         -0.14586       -6.50045        2.88554
H          0.93092       -4.37649        2.18233
C         -0.69981       -2.06723        0.84728
C          0.12771       -1.07275        1.43190
C         -0.33346       -0.36582        2.54319
C         -1.58898       -0.59928        3.04098
C         -2.43735       -1.53573        2.45728
C         -3.80204       -1.73445        3.07485
C         -4.74259       -2.66933        2.29327
C         -3.97526       -3.83203        1.65597
C         -2.89315       -3.29820        0.70785
C         -1.99369       -2.27651        1.35790
H         -2.29687       -4.12408        0.30308
H         -4.65838       -4.51421        1.13033
H         -5.25012       -2.10058        1.50502
H         -4.27140       -0.75072        3.20305
H         -1.93896       -0.04080        3.89256
H          0.29517        0.38754        2.98136
N          1.28940       -0.71921        0.75090
P          1.82693        0.90607        0.96927
C          2.91447        1.39466       -0.36225
C          3.15036        2.73224       -0.57333
C          3.90769        3.13007       -1.66011
C          4.43008        2.18963       -2.53859
C          4.16902        0.84447       -2.31255
C          3.41141        0.44779       -1.22554
H          3.19451       -0.59436       -1.05587
H          4.55447        0.11018       -2.99912
C          5.21230        2.61725       -3.73124
H          4.08578        4.17648       -1.83971
H          2.70954        3.45612        0.09438
C          2.65627        0.99733        2.55602
C          3.47588       -0.04856        2.90769
C          4.13596       -0.02579        4.12397
C          3.97201        1.04214        4.99624
C          3.14463        2.09137        4.61881
C          2.48718        2.06483        3.40404
H          1.83185        2.86776        3.11352
H          3.01795        2.92894        5.28333
C          4.70108        1.07964        6.29428
H          4.78304       -0.83989        4.40251
H          3.58772       -0.88087        2.23012
H          1.14079       -0.84178       -0.25009
H          0.38016       -1.02761       -2.89601
C         -0.59129        1.35713       -2.72117
C         -1.69305        1.74294       -3.44607
C         -1.54584        2.62170       -4.50328
C         -0.29477        3.12287       -4.83778
C          0.80709        2.71145       -4.10076
C          0.65634        1.83225       -3.04437
H          1.50847        1.52289       -2.46235
H          1.78362        3.08672       -4.35443
C         -0.13317        4.05437       -5.98821
H         -2.40568        2.92776       -5.07435
H         -2.66550        1.36501       -3.17735
C         -2.44440       -0.20705       -1.16120
C         -3.24787        0.35750       -0.19936
C         -4.58971        0.02983       -0.14584
C         -5.13658       -0.86416       -1.05708
C         -4.31159       -1.41722       -2.02649
C         -2.96762       -1.09076       -2.07484
H         -2.31934       -1.52271       -2.82103
H         -4.72713       -2.10824       -2.73985
C         -6.58166       -1.22055       -1.01062
H         -5.22177        0.47292        0.60456
H         -2.82773        1.05946        0.50187
Cl        -1.87211        3.14073       -0.57033
H          0.21425       -7.26183       -0.92277
H         -1.10113       -6.53732        1.41956
H          0.89809       -8.06309        1.24477
H         -0.79587       -4.18522        2.10745
H         -3.50411       -4.43291        2.44387
H         -3.36761       -2.83653       -0.16366
H         -3.66273       -2.12384        4.09053
H         -5.54565       -3.04540        2.94264
H          4.56356        2.72477       -4.60163
H          5.70412        3.57539       -3.55778
H          5.98580        1.88794       -3.97587
H          4.14491        1.64641        7.04228
H          4.85479        0.07416        6.68857
H          5.67907        1.54802        6.17564
H          0.72247        4.71521       -5.84244
H          0.02231        3.50154       -6.91564
H         -1.01705        4.68132       -6.11352
H         -7.10439       -0.83385       -1.88650
H         -6.71469       -2.30323       -0.98920
H         -7.06549       -0.80861       -0.12396
