111
-148.55516108
P         -2.63747        2.16232        0.56771
P          0.05109        0.49216        0.43475
C         -1.57716        2.04144        2.03431
C         -0.38695        1.35131        1.95636
C         -3.41582        3.83621        0.42875
C         -2.76862        4.66236       -0.66125
C         -1.95624        2.62514        3.22628
H         -2.89716        3.14676        3.28903
C         -1.13409        2.52268        4.33536
H         -1.42928        2.97830        5.26644
C          0.06213        1.83598        4.25167
H          0.70082        1.75473        5.11575
C          0.43530        1.24427        3.05821
H          1.35761        0.69012        2.97838
Pd        -1.39299        1.30094       -1.17872
Cl        -3.03452        1.99979       -2.53743
Cl        -0.00877        0.49192       -2.75255
C         -4.90104        3.50395        0.19366
C         -4.15068        1.10184        0.66285
H         -3.22799        5.65048       -0.73937
H         -1.70047        4.79769       -0.47518
H         -2.87194        4.17476       -1.63137
H         -5.08865        3.47732       -0.88862
H         -5.54168        4.30866        0.58539
H         -4.22747        0.59459       -0.30827
C         -5.28521        2.13166        0.81814
C         -4.04704        0.09500        1.78788
H         -3.28489        4.32044        1.40481
H         -5.49983        2.26299        1.88764
H         -6.21604        1.74548        0.37565
H         -3.90757        0.59769        2.74673
H         -4.94890       -0.51719        1.86127
H         -3.19549       -0.57305        1.64115
C         -0.93105       -3.94508        0.69104
C         -1.02721       -3.14537        1.85928
C         -0.72197       -1.79833        1.75938
C         -0.41134       -1.23411        0.55025
C         -0.42771       -1.98036       -0.59760
C         -0.72081       -3.33202       -0.57046
O         -1.00126       -5.36009        0.79032
C         -1.41038       -3.72511        3.22972
H         -0.70508       -1.17185        2.63339
H         -0.19525       -1.48183       -1.52250
C         -0.76555       -4.10867       -1.89500
C          4.42757        0.73482       -0.78419
C          3.60767        1.89011       -0.89485
C          2.27812        1.79086       -0.51685
C          1.78370        0.63250        0.02151
C          2.60222       -0.44292        0.24890
C          3.94053       -0.41305       -0.10434
O          5.69364        0.69639       -1.42272
C          4.10518        3.24789       -1.41839
H          1.60349        2.61785       -0.66195
H          2.17570       -1.32776        0.69087
C          4.80236       -1.63247        0.26389
C         -0.13756       -4.17387        3.96349
C         -2.12853       -2.66212        4.09216
C         -2.38240       -4.90949        3.07956
C         -1.24744       -3.19357       -3.04453
C          0.64457       -4.61759       -2.23123
C         -1.75281       -5.28698       -1.81644
C          0.26018       -5.98785        0.98425
H          0.39127       -4.94050        3.40216
H          0.54390       -3.33459        4.10114
H         -0.37591       -4.58025        4.94609
H         -1.46104       -1.84849        4.37178
H         -2.97968       -2.24069        3.55855
H         -2.50016       -3.10231        5.01721
H         -1.91845       -5.73938        2.55242
H         -2.70552       -5.27727        4.05312
H         -3.26743       -4.61055        2.51886
H         -0.51789       -2.41993       -3.27878
H         -1.40655       -3.76854       -3.95637
H         -2.18837       -2.70879       -2.78573
H          0.64718       -5.16829       -3.17148
H          1.34154       -3.78512       -2.32581
H          1.02166       -5.27762       -1.45356
H         -1.83093       -5.79750       -2.77599
H         -1.43799       -6.02050       -1.07855
H         -2.74582       -4.93696       -1.53646
H          0.45853       -6.67401        0.16108
H          1.05373       -5.24105        1.03399
H          0.24370       -6.56263        1.91012
C          5.62000        0.21940       -2.75615
C          3.61475        4.37169       -0.47884
C          5.64081        3.33517       -1.45793
C          3.53930        3.48789       -2.82809
C          4.53844       -2.01997        1.73606
C          4.42324       -2.81664       -0.64176
C          6.30867       -1.34703        0.13723
H          3.93654        4.18407        0.54516
H          4.01619        5.33717       -0.78574
H          2.52945        4.45705       -0.48089
H          6.05728        2.63769       -2.18069
H          5.97038        4.33532       -1.73840
H          6.06445        3.09810       -0.48265
H          2.44998        3.46687       -2.81932
H          3.85371        4.45694       -3.21464
H          3.87854        2.72307       -3.52384
H          5.19056       -2.83629        2.04564
H          4.72423       -1.17267        2.39552
H          3.51216       -2.34893        1.89122
H          4.60237       -2.58387       -1.68969
H          5.00606       -3.70218       -0.38969
H          3.36847       -3.06788       -0.53343
H          6.89967       -2.18977        0.49511
H          6.58316       -0.46749        0.71855
H          6.59034       -1.16405       -0.89688
H          4.97537        0.86583       -3.34923
H          6.61981        0.21008       -3.19070
H          5.21124       -0.78960       -2.77046
