111
-148.55734547
P         -1.50587        2.78840        0.74313
P         -0.61603       -0.22885        0.44033
C         -1.46086        1.71294        2.20149
C         -1.15493        0.37566        2.05792
C         -0.24868        4.13965        0.86089
C          0.82328        3.96962       -0.19463
C         -1.71983        2.23237        3.45367
H         -1.92411        3.28529        3.56053
C         -1.69657        1.40333        4.56157
H         -1.90192        1.80716        5.53953
C         -1.40805        0.06032        4.41492
H         -1.38754       -0.58536        5.27744
C         -1.12799       -0.45227        3.16130
H         -0.87683       -1.49283        3.03881
Pd        -1.46028        1.34175       -1.04955
Cl        -1.97328        3.06392       -2.39491
Cl        -1.36846       -0.13557       -2.73686
C         -1.08826        5.42353        0.70455
C         -3.05565        3.79564        0.62396
H          1.55500        4.77994       -0.15638
H          1.35917        3.02693       -0.07108
H          0.38290        3.96531       -1.19371
H         -1.01710        5.76414       -0.33753
H         -0.65991        6.23724        1.30903
H         -3.31728        3.81049       -0.44248
C         -2.58312        5.19187        1.06649
C         -4.19491        3.21623        1.43549
H          0.17616        4.07441        1.87096
H         -2.71942        5.28608        2.15257
H         -3.22110        5.97041        0.62084
H         -5.10457        3.81087        1.32523
H         -4.41966        2.19270        1.12694
H         -3.94894        3.19075        2.49741
C         -0.83593       -4.74713       -0.10454
C          0.03081       -4.19100        0.87090
C          0.08461       -2.81165        0.99063
C         -0.74434       -2.00436        0.25555
C         -1.65514       -2.54273       -0.61451
C         -1.75021       -3.91236       -0.79615
O         -0.76067       -6.13054       -0.41776
C          0.92630       -5.05293        1.77531
H          0.79577       -2.34464        1.65059
H         -2.26848       -1.86882       -1.18614
C         -2.79614       -4.46349       -1.77780
C          3.66746        1.18542       -0.19520
C          3.09646        1.22616        1.10256
C          1.81052        0.74179        1.27039
C          1.08490        0.28398        0.20246
C          1.59685        0.32957       -1.06732
C          2.86832        0.81937       -1.30847
O          5.04301        1.49123       -0.37279
C          3.85519        1.78233        2.31716
H          1.35127        0.72487        2.24291
H          0.96178        0.01300       -1.87656
C          3.34357        0.97009       -2.76212
C          0.27101       -6.41390        2.07338
C          2.28942       -5.25704        1.09706
C          1.15255       -4.35800        3.13771
C         -3.29851       -5.84959       -1.33512
C         -4.03096       -3.53575       -1.83979
C         -2.17753       -4.54528       -3.18178
C          0.18417       -6.44431       -1.43357
H          0.87602       -6.99665        2.76754
H         -0.71491       -6.27594        2.51602
H          0.14982       -7.00378        1.16849
H          2.18270       -5.76340        0.14078
H          2.77483       -4.29899        0.91207
H          2.95104       -5.85556        1.72279
H          1.75410       -3.45591        3.03687
H          0.20213       -4.08762        3.59712
H          1.68031       -5.01829        3.82556
H         -4.08505       -6.21104       -1.99708
H         -2.49748       -6.58439       -1.34533
H         -3.69965       -5.80693       -0.32309
H         -4.82453       -3.98769       -2.43438
H         -4.42589       -3.34838       -0.84167
H         -3.79320       -2.57847       -2.30124
H         -1.31430       -5.20614       -3.19479
H         -2.90004       -4.92044       -3.90604
H         -1.84622       -3.56141       -3.51338
H         -0.32240       -6.93325       -2.26553
H          0.67573       -5.53785       -1.78911
H          0.93151       -7.13263       -1.03931
C          5.89987        0.35780       -0.32278
C          2.87180        2.32352        3.38003
C          4.69153        0.66097        2.95116
C          4.76313        2.95548        1.90584
C          4.32291        2.14911       -2.90593
C          4.01169       -0.33553       -3.21765
C          2.14670        1.26656       -3.69600
H          2.17978        3.04024        2.93926
H          2.29265        1.52318        3.83848
H          3.40923        2.82872        4.18219
H          5.42056        0.26762        2.24702
H          5.23057        1.02283        3.82635
H          4.05345       -0.16510        3.26452
H          5.53833        2.63265        1.21499
H          4.18242        3.73655        1.41606
H          5.25612        3.39265        2.77375
H          5.23305        1.98159       -2.33566
H          4.60876        2.29658       -3.94707
H          3.86792        3.07108       -2.54519
H          4.35177       -0.26052       -4.25019
H          4.87139       -0.57617       -2.59675
H          3.31228       -1.16868       -3.15207
H          1.47932        0.41065       -3.78297
H          2.49039        1.50640       -4.70179
H          1.56871        2.11446       -3.32918
H          6.65393        0.50612        0.45011
H          5.32628       -0.54378       -0.10394
H          6.41078        0.24110       -1.27824
