87
-129.18046237
P         -1.49591       -0.35766       -0.30183
P          1.72332        0.27875        0.45362
C         -0.99183        0.76834       -1.60894
C          1.58580       -0.95204       -0.86811
C          0.14598        0.46929       -2.34808
C          0.54390        1.35221       -3.37159
C         -0.22373        2.47777       -3.62376
C         -1.35538        2.75085       -2.88317
C         -1.73683        1.89149       -1.87161
C          2.18900       -2.15076       -0.56700
C          2.13286       -3.20591       -1.45680
C          1.45868       -3.05493       -2.64839
C          0.82704       -1.86486       -2.96593
C          0.89024       -0.78526       -2.06360
Cl         0.82712       -0.00304        3.58483
Cl        -1.75618       -1.60717        2.73313
H         -1.93686        3.63459       -3.08861
H         -2.61985        2.09390       -1.28859
H          2.70209       -2.26044        0.37700
H          2.60888       -4.14242       -1.21669
H          0.08079        3.15063       -4.40735
H          1.40615       -3.87527       -3.34405
C         -2.40675       -4.44435       -2.06521
C         -2.75014       -3.30038       -2.77219
C         -2.47333       -2.06176       -2.20395
C         -1.85903       -1.98004       -0.97601
C         -1.53467       -3.11839       -0.27675
C         -1.80430       -4.35727       -0.82562
H         -2.62277       -5.40830       -2.49356
C         -3.42471       -3.39932       -4.09511
H         -2.73235       -1.15646       -2.72809
H         -1.09778       -3.03253        0.70452
H         -1.55084       -5.25314       -0.28293
C         -5.25064        1.22334        1.74101
C         -5.28543        0.01834        1.06815
C         -4.14642       -0.45565        0.44554
C         -2.98488        0.27907        0.49407
C         -2.94873        1.47980        1.16386
C         -4.08062        1.96750        1.80506
H         -6.13659        1.59493        2.22710
H         -6.19742       -0.55470        1.03186
H         -4.15681       -1.39994       -0.07395
H         -2.03595        2.04843        1.18626
C         -4.03824        3.27096        2.52187
C          6.03417        0.08110        1.90950
C          5.01084        0.08589        2.83636
C          3.69867        0.14407        2.41114
C          3.41448        0.19393        1.06797
C          4.43277        0.19096        0.14182
C          5.76121        0.14050        0.54986
H          7.05859        0.02864        2.23689
H          5.23439        0.04138        3.88971
H          2.88888        0.14130        3.11990
H          4.19551        0.21763       -0.90917
C          6.86034        0.10579       -0.45300
C          0.84859        4.62677       -0.54760
C          1.77148        3.92577       -1.29831
C          2.04731        2.60591       -0.99433
C          1.39013        1.99689        0.04819
C          0.50006        2.70469        0.82339
C          0.21041        4.03217        0.53194
H          0.62182        5.65091       -0.79048
H          2.26929        4.40282       -2.12654
H          2.76087        2.04288       -1.57365
H          0.06001        2.23496        1.68649
C         -0.78245        4.79121        1.33908
Pd        -0.17750       -0.45201        1.62893
C          1.77257        1.10829       -4.17655
C          0.09332       -1.76204       -4.25847
H          2.38377        2.01009       -4.23531
H          2.38833        0.32213       -3.73802
H          1.51794        0.80981       -5.19424
H         -0.61219       -0.93074       -4.25458
H          0.78602       -1.61371       -5.08770
H         -0.47400       -2.67241       -4.45632
H         -2.98284       -4.19130       -4.70159
H         -4.48598       -3.62022       -3.97293
H         -3.33840       -2.46643       -4.65420
H         -4.08825        4.10288        1.81806
H         -4.87355        3.36837        3.21664
H         -3.11722        3.36845        3.09824
H          7.09620       -0.92179       -0.73323
H          6.58275        0.64639       -1.35911
H          7.76815        0.56472       -0.05879
H         -0.87856        4.37170        2.34143
H         -0.48601        5.83569        1.44506
H         -1.76468        4.76644        0.86526
