171
-217.83761376
P         -1.48456        0.22380       -0.40953
P          1.68032       -0.70810        0.31347
C         -0.47529        1.04904       -1.65595
C          1.03426       -1.70729       -1.04634
C          0.41057        0.28775       -2.40798
C          1.22904        0.92522       -3.35939
C          1.10109        2.29234       -3.54668
C          0.20321        3.03038       -2.80347
C         -0.58304        2.40304       -1.85741
C          1.04113       -3.06295       -0.81637
C          0.50001       -3.93041       -1.74557
C         -0.06256       -3.42652       -2.89848
C         -0.09466       -2.06387       -3.14232
C          0.47256       -1.18155       -2.20356
Cl         0.64069       -0.96998        3.42392
Cl        -2.24698       -1.60322        2.35493
C         -0.75500       -1.56946       -4.38176
C          2.20926        0.14242       -4.16219
H          0.11898        4.09401       -2.95589
H         -1.28445        2.97311       -1.27380
H          1.46245       -3.43986        0.10404
H          0.50838       -4.99268       -1.56385
H          1.71230        2.77989       -4.28696
H         -0.49794       -4.09499       -3.62209
C         -4.23112       -2.68168       -2.53578
C         -3.57602       -3.10558       -1.38655
C         -2.75735       -2.19452       -0.73357
C         -2.58396       -0.92867       -1.23234
C         -3.22011       -0.53368       -2.38381
C         -4.06749       -1.40491       -3.05865
H         -4.89941       -3.36307       -3.02877
H         -2.26246       -2.45951        0.18267
H         -3.03389        0.45525       -2.76436
C         -4.08843        3.35091        1.63726
C         -3.25912        2.57407        2.43412
C         -2.46632        1.62103        1.81044
C         -2.51088        1.44507        0.44706
C         -3.36201        2.20641       -0.31731
C         -4.16134        3.18433        0.26120
H         -4.69739        4.10436        2.10209
H         -1.81873        1.00288        2.40191
H         -3.39338        2.03878       -1.37896
C          5.54831       -2.64579        1.66573
C          4.63242       -2.25381        2.63598
C          3.44466       -1.67704        2.21090
C          3.18685       -1.50382        0.87624
C          4.09978       -1.89849       -0.07016
C          5.30351       -2.47993        0.30681
H          6.47341       -3.09211        1.97559
H          2.70209       -1.36991        2.92474
H          3.86783       -1.75549       -1.11278
C          2.84830        3.65190       -0.15182
C          3.58709        2.67172       -0.80395
C          3.17293        1.35277       -0.67100
C          2.06369        1.03576        0.07361
C          1.35076        2.01965        0.71978
C          1.73389        3.35107        0.62303
H          3.16324        4.67423       -0.23113
H          3.74079        0.55933       -1.12558
H          0.50095        1.75148        1.32149
Pd        -0.37487       -0.74233        1.43228
C         -5.25605       -4.73447       -0.49074
C         -3.77699       -4.53533       -0.86644
C         -2.91185       -4.81188        0.37963
C         -3.37735       -5.53767       -1.96500
H         -5.42820       -5.73753       -0.10089
H         -5.55761       -4.01835        0.27345
H         -5.90541       -4.59547       -1.35435
H         -1.85329       -4.67420        0.15993
H         -3.18252       -4.14925        1.20132
H         -3.04724       -5.83643        0.72546
H         -3.99255       -5.41729       -2.85581
H         -2.33682       -5.39472       -2.25498
H         -3.49231       -6.56405       -1.61705
C         -4.75791       -2.02934       -5.40652
C         -4.86411       -0.96542       -4.29625
C         -4.34008        0.37016       -4.86132
C         -6.33836       -0.78777       -3.89327
H         -5.29144       -1.70923       -6.30140
H         -3.71839       -2.20212       -5.68208
H         -5.18606       -2.98050       -5.09386
H         -4.87871        0.64419       -5.76834
H         -4.47315        1.18175       -4.14683
H         -3.28175        0.30083       -5.11160
H         -6.75537       -1.72129       -3.51633
H         -6.43514       -0.03786       -3.10823
H         -6.94098       -0.46807       -4.74322
C         -2.27391        1.80191        4.65245
C         -3.25402        2.76860        3.95715
C         -4.66800        2.50036        4.50439
C         -2.83480        4.21245        4.28656
H         -2.28387        1.95094        5.73191
H         -2.54422        0.76356        4.46129
H         -1.25252        1.96007        4.30859
H         -5.39468        3.19267        4.08092
H         -4.98819        1.48779        4.25953
H         -4.69448        2.61039        5.58833
H         -1.84476        4.42592        3.88639
H         -3.53010        4.93459        3.86028
H         -2.80497        4.37394        5.36395
C         -4.60035        5.54165       -0.45424
C         -5.08206        4.08453       -0.57401
C         -6.52636        3.96689       -0.05269
C         -5.07075        3.68409       -2.06277
H         -4.63130        5.88358        0.57975
H         -3.57337        5.63716       -0.80683
H         -5.22505        6.20976       -1.04682
H         -6.60456        4.29836        0.98191
H         -7.20643        4.57558       -0.64839
H         -6.86884        2.93333       -0.10033
H         -5.40213        2.65395       -2.19241
H         -5.74038        4.32145       -2.64005
H         -4.07312        3.78413       -2.49013
C          6.24720       -3.08747        4.42085
C          4.88087       -2.43315        4.14047
C          3.77763       -3.33049        4.73217
C          4.84849       -1.05448        4.82624
H          6.30926       -4.07636        3.96697
H          7.06197       -2.47616        4.03323
H          6.40592       -3.20651        5.49260
H          3.93581       -3.49202        5.79823
H          2.79267       -2.88244        4.60620
H          3.76763       -4.30298        4.24051
H          5.60573       -0.39559        4.40181
H          3.87900       -0.57345        4.70176
H          5.04005       -1.14565        5.89519
C          6.72133       -1.66436       -1.59279
C          6.30183       -2.90359       -0.77992
C          5.63087       -3.93085       -1.71119
C          7.56654       -3.54399       -0.17651
H          7.18560       -0.91987       -0.94649
H          7.43829       -1.93103       -2.36906
H          5.86358       -1.19932       -2.07746
H          4.75881       -3.50651       -2.20750
H          6.32227       -4.26747       -2.48348
H          5.30251       -4.80396       -1.14767
H          8.26065       -3.84284       -0.96197
H          8.08872       -2.84342        0.47488
H          7.31815       -4.43473        0.40028
C          5.10342        4.49964       -1.72376
C          4.88869        2.98283       -1.55772
C          4.84899        2.34775       -2.95919
C          6.07004        2.39822       -0.76245
H          5.21590        4.99083       -0.75755
H          6.00686        4.70119       -2.29927
H          4.26562        4.95691       -2.25012
H          4.75453        1.26437       -2.90354
H          4.00618        2.73456       -3.53011
H          5.76033        2.57080       -3.51377
H          5.96694        1.32011       -0.64446
H          7.01650        2.59272       -1.26653
H          6.11941        2.83829        0.23333
C         -0.47842        4.50820        0.93149
C          0.97583        4.42278        1.42326
C          1.61978        5.81443        1.27060
C          0.99729        4.04052        2.91523
H         -0.51368        4.79889       -0.11780
H         -0.98226        3.54992        1.03567
H         -1.04330        5.24508        1.50201
H          2.65213        5.80971        1.61992
H          1.60573        6.14182        0.23116
H          1.07711        6.55683        1.85578
H          0.50928        4.80305        3.52152
H          0.48477        3.09563        3.08888
H          2.02227        3.93409        3.26979
H         -1.74991       -2.00372       -4.48247
H          2.96935        0.78768       -4.60412
H         -0.18007       -1.84332       -5.26753
H         -0.86900       -0.48494       -4.37291
H          1.71367       -0.38691       -4.97642
H          2.71970       -0.59610       -3.54172
