45
-71.81464124
C          1.43370        1.05391        2.69802
P          1.24898        0.81525        0.89902
P         -1.31030        0.21126       -0.87514
C         -1.25266       -0.29797       -2.62596
Cl         1.53928       -2.21890        1.70752
H          1.87682        0.16948        3.14681
H         -0.24337       -0.18619       -3.01160
Cl        -0.82484       -2.93634       -0.61898
C          0.36020        2.17313        0.11895
C         -0.72278        1.90731       -0.68927
C         -1.35771        2.93573       -1.35567
C         -0.91048        4.23603       -1.19989
C          0.17379        4.50161       -0.38611
C          0.81612        3.46636        0.27040
H         -2.19619        2.71541       -1.99687
H         -1.40685        5.04086       -1.71669
H          0.52568        5.51335       -0.26892
H          1.67808        3.65561        0.89005
Pd         0.16438       -1.14533        0.30039
H         -1.92737        0.31768       -3.21380
H          0.45903        1.22418        3.14650
H         -1.55243       -1.33792       -2.71842
C         -5.51769       -0.32336        0.79636
C         -4.99508        0.94732        0.65829
C         -3.71826        1.11713        0.15455
C         -2.97156        0.01901       -0.21009
C         -3.48878       -1.24779       -0.06458
C         -4.76481       -1.42336        0.43713
H         -6.51259       -0.45682        1.18886
H         -5.58043        1.80613        0.94322
H         -3.29891        2.10374        0.05217
H         -2.87734       -2.09575       -0.32481
H         -5.16722       -2.41647        0.55158
C          5.10881        0.12243       -1.40263
C          5.11654       -0.00219       -0.02697
C          3.95570        0.21544        0.69297
C          2.79964        0.56056        0.03145
C          2.78365        0.67837       -1.34061
C          3.94380        0.46131       -2.06228
H          6.01334       -0.04911       -1.96302
H          6.02467       -0.27392        0.48565
H          3.94504        0.10696        1.76518
H          1.86270        0.93812       -1.83853
H          3.93636        0.55415       -3.13584
H          2.07026        1.91114        2.89773
