111
-148.55433633
P         -1.66694        2.68682       -0.22227
P         -0.45984       -0.14445        0.49307
C         -1.71219        2.09663        1.49251
C         -1.23764        0.83753        1.79317
C         -0.53448        4.14029       -0.37585
C          0.69789        3.77923       -1.17738
C         -2.17804        2.91570        2.50100
H         -2.50985        3.91358        2.26495
C         -2.18985        2.46074        3.80820
H         -2.55758        3.09830        4.59555
C         -1.72173        1.19538        4.10600
H         -1.72277        0.84435        5.12481
C         -1.23310        0.38564        3.09657
H         -0.82768       -0.58901        3.31852
Pd        -1.15881        0.82096       -1.48382
Cl        -1.77977        2.01675       -3.28034
Cl        -0.59705       -1.01708       -2.64592
C         -1.42573        5.21548       -1.02838
C         -3.25567        3.44540       -0.79766
H          1.36181        4.63840       -1.29807
H          1.26437        2.97877       -0.69688
H          0.42131        3.43015       -2.17426
H         -1.23648        5.21853       -2.11063
H         -1.13720        6.21754       -0.67662
H         -3.38572        3.10868       -1.83462
C         -2.93755        4.95136       -0.77256
C         -4.44414        3.02495        0.04091
H         -0.26674        4.42831        0.64937
H         -3.22284        5.35886        0.20701
H         -3.55974        5.48579       -1.50669
H         -5.37235        3.45715       -0.33972
H         -4.55570        1.93830        0.05144
H         -4.33282        3.35205        1.07493
C         -1.02707       -4.64590        0.96702
C          0.03632       -4.14591        0.16963
C          0.20254       -2.77361        0.08687
C         -0.68799       -1.91197        0.67235
C         -1.79755       -2.39205        1.32008
C         -2.01450       -3.75330        1.46125
O         -1.05678       -6.01617        1.33287
C          0.98645       -5.03238       -0.65379
H          1.03879       -2.36328       -0.45110
H         -2.49907       -1.68412        1.72747
C         -3.31400       -4.21228        2.14392
C          3.79153        1.42461        0.00904
C          3.25471        0.54625       -0.96648
C          1.96571        0.07669       -0.78614
C          1.25382        0.36986        0.34705
C          1.80357        1.14263        1.33607
C          3.08276        1.65892        1.21494
O          5.01442        2.10310       -0.23995
C          4.01557        0.14364       -2.23868
H          1.47048       -0.47610       -1.56490
H          1.20163        1.36814        2.19859
C          3.64933        2.51506        2.35777
C          0.50536       -6.49118       -0.73889
C          1.05167       -4.49407       -2.10036
C          2.39278       -4.99185       -0.03372
C         -4.50674       -3.40950        1.57893
C         -3.61362       -5.69987        1.88901
C         -3.20989       -3.96121        3.65722
C         -0.30650       -6.28632        2.50509
H          1.13635       -7.07467       -1.40892
H          0.52836       -6.97165        0.23629
H         -0.51818       -6.53684       -1.10929
H          0.05513       -4.45064       -2.53876
H          1.47662       -3.49317       -2.14091
H          1.66886       -5.13612       -2.72813
H          2.77672       -3.97269       -0.00187
H          2.38297       -5.37533        0.98506
H          3.09121       -5.59494       -0.61331
H         -4.55098       -3.49956        0.49394
H         -5.44889       -3.77651        1.98533
H         -4.43819       -2.35186        1.82763
H         -2.86316       -6.33741        2.35058
H         -4.58288       -5.98179        2.29961
H         -3.62133       -5.91256        0.82057
H         -3.03472       -2.90610        3.86554
H         -4.12775       -4.25609        4.16517
H         -2.38860       -4.52654        4.09355
H          0.72695       -5.97088        2.36854
H         -0.72953       -5.74702        3.35110
H         -0.33363       -7.35662        2.71065
C          4.86370        3.34674       -0.91427
C          5.53353        0.09274       -1.98881
C          3.59004       -1.26917       -2.70073
C          3.69121        1.14337       -3.35933
C          3.06582        2.06782        3.71773
C          5.17848        2.36911        2.45656
C          3.26814        3.98516        2.12377
H          6.06512       -0.25282       -2.87508
H          5.92772        1.07202       -1.73038
H          5.76419       -0.58626       -1.16860
H          2.56053       -1.28493       -3.05485
H          4.21572       -1.61186       -3.52446
H          3.68552       -1.98745       -1.88691
H          3.99072        2.15268       -3.08747
H          4.20562        0.87616       -4.28195
H          2.62050        1.15952       -3.56228
H          3.20176        0.99667        3.86451
H          3.56179        2.58375        4.53959
H          2.00317        2.29340        3.79521
H          5.67191        2.74061        1.56211
H          5.57143        2.92806        3.30547
H          5.45651        1.32308        2.58099
H          3.64643        4.61914        2.92523
H          2.18506        4.10033        2.08476
H          3.67302        4.35360        1.18440
H          5.40909        3.32148       -1.85748
H          3.81043        3.54942       -1.10979
H          5.27996        4.14721       -0.30288
