111
-148.55369441
P         -2.19655        2.51196       -0.15782
P         -0.15943        0.17833        0.50582
C         -1.75938        2.16490        1.56362
C         -0.91034        1.11879        1.84872
C         -1.76956        4.25338       -0.60560
C         -0.63315        4.27506       -1.60509
C         -2.27167        2.93590        2.58709
H         -2.91831        3.76639        2.35451
C         -1.94540        2.64152        3.89981
H         -2.34674        3.24105        4.70049
C         -1.10781        1.57998        4.18465
H         -0.85488        1.34976        5.20650
C         -0.58602        0.81737        3.15499
H          0.07919       -0.00747        3.35841
Pd        -1.24564        0.84204       -1.43683
Cl        -2.65515        1.34434       -3.10318
Cl        -0.23371       -0.90948       -2.42702
C         -3.09984        4.82176       -1.13682
C         -4.02726        2.54420       -0.44148
H          0.26401        3.80210       -1.19723
H         -0.90706        3.73040       -2.51115
H         -0.37635        5.29633       -1.89659
H         -3.09952        4.75119       -2.23319
H         -3.17526        5.89623       -0.91115
H         -4.19115        2.04456       -1.40511
C         -4.32561        4.04847       -0.57254
C         -4.79156        1.83268        0.65473
H         -1.48133        4.75046        0.33002
H         -4.58899        4.44612        0.41713
H         -5.21503        4.20877       -1.20087
H         -4.47174        0.79242        0.74793
H         -4.62952        2.31200        1.62086
H         -5.86659        1.84072        0.46093
C         -1.03310       -4.27752        0.75989
C          0.31445       -3.83693        0.71244
C          0.55656       -2.47568        0.64097
C         -0.47200       -1.57207        0.68221
C         -1.76941       -1.98695        0.83018
C         -2.08148       -3.33426        0.91499
O         -1.33426       -5.65742        0.61066
C          1.50515       -4.80763        0.68291
H          1.55859       -2.10151        0.52914
H         -2.54187       -1.23718        0.86203
C         -3.54606       -3.74652        1.12942
C          4.25190        1.24683        0.02436
C          3.62768        0.37177       -0.90027
C          2.28159        0.09878       -0.73415
C          1.58147        0.58185        0.33931
C          2.20655        1.34681        1.28955
C          3.54900        1.66948        1.18144
O          5.56384        1.73000       -0.22621
C          4.37125       -0.25613       -2.08949
H          1.74515       -0.48113       -1.46331
H          1.62371        1.70266        2.11998
C          4.21242        2.49380        2.29613
C          1.83342       -5.16065       -0.77588
C          2.75338       -4.16088        1.32610
C          1.20034       -6.08625        1.48411
C         -4.29412       -2.68156        1.96379
C         -4.24061       -3.87666       -0.23471
C         -3.64407       -5.07222        1.90585
C         -1.54619       -6.05931       -0.73703
H          2.69421       -5.82635       -0.83299
H          0.99447       -5.65391       -1.26054
H          2.06218       -4.26161       -1.34740
H          2.52427       -3.78328        2.32225
H          3.55983       -4.88766        1.42113
H          3.13652       -3.33660        0.72668
H          2.06707       -6.74608        1.51363
H          0.92601       -5.84021        2.50937
H          0.37769       -6.64416        1.04397
H         -3.75750       -2.46536        2.88724
H         -4.41740       -1.75073        1.41264
H         -5.29208       -3.02927        2.22987
H         -4.19963       -2.93337       -0.77896
H         -3.76143       -4.63365       -0.85076
H         -5.28791       -4.15281       -0.11526
H         -3.11733       -4.99948        2.85675
H         -4.68265       -5.32975        2.11203
H         -3.20702       -5.89457        1.34526
H         -2.55189       -6.46511       -0.84475
H         -1.42205       -5.21009       -1.41034
H         -0.83428       -6.84088       -1.00186
C          5.60357        2.92587       -0.99505
C          3.76872       -1.63635       -2.43951
C          4.23700        0.66229       -3.31343
C          5.85625       -0.48959       -1.75801
C          3.52663        2.22768        3.65588
C          5.69488        2.11210        2.45950
C          4.08306        3.98902        1.96831
H          3.73974       -2.27897       -1.56039
H          2.75774       -1.54913       -2.83432
H          4.36632       -2.13774       -3.20037
H          4.74729        0.23826       -4.17781
H          3.18856        0.80259       -3.57567
H          4.66327        1.64361       -3.11895
H          6.36649       -0.99297       -2.57883
H          6.37493        0.44779       -1.57434
H          5.95732       -1.10712       -0.86611
H          4.07497        2.70796        4.46599
H          2.51183        2.62218        3.68031
H          3.48569        1.15941        3.86713
H          6.14892        2.65062        3.29097
H          5.79733        1.04436        2.65033
H          6.26609        2.34720        1.56486
H          4.57610        4.23121        1.03002
H          4.53100        4.60054        2.75116
H          3.03516        4.27359        1.87531
H          4.59252        3.26430       -1.22517
H          6.12857        3.70105       -0.43703
H          6.14685        2.74790       -1.92288
