111
-148.55284062
P         -1.57993        2.73359        0.90768
P         -0.51413       -0.21744        0.41269
C         -1.28617        1.62386        2.31429
C         -0.90081        0.31807        2.09337
C         -0.33744        4.10421        0.91086
C          0.55297        4.02445       -0.31106
C         -1.41631        2.09180        3.60639
H         -1.67416        3.12450        3.77460
C         -1.18947        1.24178        4.67495
H         -1.29534        1.60670        5.68355
C         -0.82161       -0.07077        4.45048
H         -0.63976       -0.73142        5.28216
C         -0.66621       -0.53055        3.15535
H         -0.34431       -1.54179        2.96455
Pd        -1.65497        1.30946       -0.91303
Cl        -3.06636        2.71651       -1.93102
Cl        -1.46792       -0.19733       -2.57185
C         -1.20445        5.37763        0.97946
C         -3.14124        3.71697        1.07458
H          1.11694        3.09003       -0.33400
H         -0.04238        4.06881       -1.22536
H          1.26891        4.84919       -0.33877
H         -1.29554        5.79490       -0.03271
H         -0.69784        6.15431        1.57193
H         -3.54789        3.80606        0.05908
C         -2.62452        5.08844        1.54424
C         -4.15741        3.06214        1.98578
H          0.24543        3.98281        1.83307
H         -2.59705        5.10283        2.64232
H         -3.33131        5.88215        1.25738
H         -5.07862        3.64672        2.03905
H         -4.41269        2.05932        1.63591
H         -3.77404        2.96588        3.00168
C         -0.61469       -4.74745       -0.03856
C         -1.66029       -3.96823       -0.59738
C         -1.62625       -2.59542       -0.41522
C         -0.56841       -1.99383        0.21355
C          0.49920       -2.73138        0.65554
C          0.52367       -4.10915        0.51619
O         -0.72007       -6.16363       -0.00853
C         -2.81980       -4.58916       -1.39274
H         -2.42284       -1.97005       -0.77902
H          1.32216       -2.20870        1.11274
C          1.76476       -4.88640        0.98228
C          3.64308        1.35072       -0.59973
C          3.19023        1.36710        0.74424
C          1.93734        0.84791        1.02128
C          1.12816        0.38396        0.01809
C          1.52105        0.45772       -1.29153
C          2.75465        0.97796       -1.64059
O          4.99221        1.68061       -0.89659
C          4.04364        1.92224        1.89466
H          1.57296        0.80164        2.03218
H          0.82694        0.12512       -2.04305
C          3.10070        1.13753       -3.12912
C         -3.96979       -4.93396       -0.43486
C         -3.34258       -3.59599       -2.45621
C         -2.36076       -5.85062       -2.14675
C          3.03527       -4.01427        0.85538
C          1.59003       -5.28648        2.45506
C          1.99164       -6.13833        0.11558
C         -1.36584       -6.67275        1.15151
H         -4.32216       -4.04120        0.08119
H         -4.81160       -5.36603       -0.97535
H         -3.65285       -5.64917        0.32035
H         -3.84020       -2.74138       -2.00059
H         -2.52585       -3.22567       -3.07527
H         -4.06863       -4.07641       -3.11154
H         -2.05213       -6.63386       -1.45885
H         -3.16361       -6.25225       -2.76447
H         -1.51515       -5.62312       -2.79496
H          3.12598       -3.60494       -0.15052
H          3.02947       -3.18672        1.56334
H          3.92992       -4.60218        1.05932
H          1.45971       -4.40403        3.08115
H          0.71641       -5.91960        2.59032
H          2.46079       -5.83228        2.81750
H          2.07106       -5.86707       -0.93659
H          2.90755       -6.65381        0.40347
H          1.17135       -6.84466        0.21678
H         -0.68821       -7.34020        1.68360
H         -1.66444       -5.85643        1.81040
H         -2.24608       -7.24472        0.85857
C          5.86918        0.56164       -0.92116
C          4.93943        0.80385        2.44779
C          4.90391        3.10674        1.41862
C          3.14763        2.44714        3.03978
C          1.82376        1.41675       -3.95556
C          4.04715        2.33055       -3.35465
C          3.74611       -0.15803       -3.64276
H          4.33666       -0.02989        2.80740
H          5.60989        0.42143        1.68206
H          5.54708        1.16443        3.27737
H          4.27755        3.88549        0.98457
H          5.46309        3.54266        2.24611
H          5.62211        2.79634        0.66355
H          2.61445        1.63906        3.53853
H          3.74581        2.95102        3.79861
H          2.41614        3.16126        2.66336
H          1.16327        0.55162       -3.98473
H          1.26847        2.25697       -3.53932
H          2.07586        1.66059       -4.98722
H          4.23898        2.48357       -4.41636
H          3.61272        3.24549       -2.95302
H          5.00589        2.17498       -2.86654
H          4.65961       -0.38609       -3.09861
H          3.99472       -0.07770       -4.70065
H          3.06730       -1.00146       -3.51834
H          5.33056       -0.35012       -0.65958
H          6.30154        0.45575       -1.91587
H          6.68162        0.72053       -0.21219
