171
-217.84386610
P         -1.64123        0.39771       -0.42853
P          1.60564       -0.37601       -0.36806
C         -0.91736        1.34991       -1.76740
C          0.92426       -1.33361       -1.72215
C         -0.07332        0.74942       -2.69530
C          0.56633        1.56141       -3.65209
C          0.30222        2.92054       -3.67304
C         -0.56854        3.48995       -2.76859
C         -1.16715        2.70011       -1.80684
C          1.16760       -2.68497       -1.75046
C          0.62313       -3.46715       -2.75004
C         -0.18128       -2.88730       -3.70797
C         -0.43912       -1.52628       -3.69521
C          0.13978       -0.72428       -2.69375
Cl         1.59607        0.49386        2.71248
Cl        -1.61031       -0.38995        2.79154
C         -1.29226       -0.92439       -4.75590
C          1.52880        0.99443       -4.63676
H         -0.77381        4.54737       -2.80465
H         -1.83251        3.13989       -1.08139
H          1.78814       -3.12952       -0.98896
H          0.82449       -4.52554       -2.77905
H          0.79061        3.53508       -4.41050
H         -0.61596       -3.49485       -4.48369
C         -3.86751       -3.37315       -1.56412
C         -2.85339       -3.44315       -0.61621
C         -2.16007       -2.27680       -0.32262
C         -2.48592       -1.09555       -0.94101
C         -3.49668       -1.04019       -1.86921
C         -4.21428       -2.18451       -2.19749
H         -4.40801       -4.26707       -1.80775
H         -1.36572       -2.28413        0.40387
H         -3.73682       -0.09431       -2.32545
C         -4.32188        2.87342        2.26726
C         -4.88553        1.83394        1.53873
C         -4.05278        1.10428        0.69938
C         -2.72076        1.41958        0.59124
C         -2.18235        2.45492        1.31657
C         -2.97490        3.19955        2.18057
H         -4.94693        3.43350        2.93824
H         -4.43212        0.26855        0.13905
H         -1.12940        2.65895        1.22490
C          4.24130       -2.89745        2.33059
C          2.87403       -3.14692        2.30679
C          2.09184       -2.39108        1.44415
C          2.65584       -1.41222        0.66403
C          4.00641       -1.17193        0.70843
C          4.83108       -1.91952        1.53904
H          4.86845       -3.46598        2.99115
H          1.02714       -2.54788        1.40231
H          4.40997       -0.38130        0.10191
C          3.97104        3.27466       -1.60118
C          2.95662        3.41673       -0.66185
C          2.22340        2.28719       -0.32497
C          2.50523        1.07522       -0.90324
C          3.50993        0.94947       -1.83076
C          4.26805        2.05541       -2.19865
H          4.56238        4.13032       -1.86718
H          1.43531        2.34797        0.40603
H          3.70234       -0.02210       -2.25333
Pd        -0.04420        0.06396        1.23996
C         -3.52379       -5.85351       -0.14244
C         -2.47622       -4.74912        0.09819
C         -2.38104       -4.50165        1.61743
C         -1.11805       -5.23185       -0.43461
H         -3.57393       -6.12832       -1.19571
H         -3.27109       -6.75402        0.41727
H         -4.51353       -5.52913        0.17869
H         -1.59881       -3.78429        1.85995
H         -3.32255       -4.11136        2.00303
H         -2.15532       -5.42562        2.14949
H         -0.35003       -4.47567       -0.27944
H         -0.80139       -6.14653        0.06620
H         -1.17589       -5.43416       -1.50377
C         -6.42222       -1.09253       -2.66726
C         -5.37935       -2.09399       -3.19594
C         -6.07255       -3.45654       -3.39225
C         -4.85411       -1.61760       -4.56085
H         -5.99472       -0.09637       -2.56007
H         -7.27181       -1.01846       -3.34587
H         -6.79582       -1.40734       -1.69324
H         -6.89785       -3.37155       -4.09916
H         -5.37741       -4.19774       -3.78622
H         -6.48121       -3.82816       -2.45271
H         -5.66652       -1.53025       -5.28214
H         -4.37341       -0.64340       -4.48171
H         -4.12811       -2.32542       -4.95895
C         -6.60558        1.03094        3.17052
C         -6.37076        1.49129        1.72060
C         -6.81241        0.36277        0.76945
C         -7.22671        2.73676        1.42338
H         -7.64944        0.76210        3.33125
H         -5.99214        0.15999        3.40064
H         -6.34891        1.81659        3.88028
H         -6.65519        0.65018       -0.26948
H         -6.25966       -0.55621        0.96386
H         -7.87221        0.14169        0.89536
H         -6.99900        3.55018        2.11104
H         -7.04623        3.09421        0.40973
H         -8.28880        2.51085        1.51728
C         -2.64017        3.96680        4.54225
C         -2.39922        4.31674        3.06200
C         -3.09376        5.64646        2.71821
C         -0.88297        4.48535        2.84732
H         -2.17754        3.01143        4.78960
H         -2.21629        4.72761        5.19739
H         -3.70378        3.89076        4.76449
H         -2.94599        5.89683        1.66778
H         -4.16620        5.59185        2.90167
H         -2.69334        6.46251        3.31950
H         -0.48546        5.27337        3.48673
H         -0.34910        3.56564        3.08619
H         -0.66453        4.75726        1.81586
C          1.50105       -5.24375        2.35853
C          2.19852       -4.17809        3.22155
C          1.15662       -3.46094        4.10225
C          3.21575       -4.88027        4.14092
H          1.02175       -5.99950        2.98057
H          0.73466       -4.79527        1.72978
H          2.21787       -5.74424        1.70785
H          1.62960       -2.68176        4.69943
H          0.38171       -2.99004        3.49875
H          0.67021       -4.16072        4.78134
H          3.72472       -4.16169        4.78307
H          2.71805       -5.60422        4.78603
H          3.96483       -5.41746        3.55949
C          6.69543       -1.20670        3.05240
C          6.34284       -1.66681        1.62638
C          6.79400       -0.57614        0.63429
C          7.09945       -2.96650        1.29549
H          6.43892       -1.96811        3.78808
H          7.76143       -0.99908        3.14366
H          6.15048       -0.29818        3.30818
H          6.31079        0.37644        0.85102
H          7.87088       -0.41930        0.69441
H          6.55798       -0.85887       -0.39148
H          8.17740       -2.80855        1.32617
H          6.85950       -3.75774        2.00464
H          6.83844       -3.31990        0.29809
C          2.66690        4.57793        1.54418
C          2.62817        4.75517        0.01382
C          1.22333        5.20322       -0.42306
C          3.63690        5.85390       -0.37196
H          3.64937        4.23375        1.86633
H          2.45497        5.51878        2.05173
H          1.93271        3.84757        1.88040
H          0.47826        4.44679       -0.18094
H          0.93603        6.13216        0.06912
H          1.19274        5.36782       -1.49966
H          3.40268        6.78890        0.13691
H          4.65117        5.56946       -0.09228
H          3.61493        6.04957       -1.44382
C          5.28385        2.98253       -4.30805
C          5.44866        1.95118       -3.17529
C          5.54300        0.54725       -3.80448
C          6.75468        2.23281       -2.41020
H          6.09992        2.90406       -5.02621
H          4.34923        2.82573       -4.84466
H          5.28079        4.00122       -3.92277
H          4.62890        0.29450       -4.34086
H          6.36815        0.49665       -4.51476
H          5.71862       -0.21354       -3.04422
H          6.75042        3.23322       -1.97869
H          6.88635        1.51953       -1.59715
H          7.61864        2.15599       -3.07009
H         -1.88491       -0.09797       -4.36098
H          1.76763       -0.04615       -4.41373
H         -1.98005       -1.66098       -5.17145
H         -0.68399       -0.54174       -5.57607
H          2.46359        1.55474       -4.62456
H          1.12534        1.04034       -5.64927
