115
-277.93607744
P         -1.78231       -0.06056       -0.13937
P          1.73418       -0.74673        0.56300
C         -1.57854        1.71705       -0.40630
C         -2.69429        2.51830       -0.30222
H         -3.67248        2.07064       -0.21598
C         -2.54540        3.88574       -0.20111
H         -3.39508        4.51204        0.01769
C         -1.28327        4.45664       -0.24142
C         -0.18624        3.65426       -0.51146
H          0.78813        4.11750       -0.58360
C         -0.33421        2.28450       -0.58600
H          0.53479        1.66270       -0.71722
C         -3.21164       -0.66548       -1.05085
C         -3.72279        0.01961       -2.12900
H         -3.25268        0.93321       -2.45547
C         -4.82271       -0.47646       -2.79975
H         -5.24598        0.04826       -3.64186
C         -5.40946       -1.65994       -2.39618
C         -4.88666       -2.34081       -1.31333
H         -5.36017       -3.25685       -0.99819
C         -3.78773       -1.84583       -0.64330
H         -3.38277       -2.37414        0.20468
C         -1.86250       -0.64751        1.58975
C         -1.24121       -1.87353        1.75552
H         -0.74664       -2.33167        0.91514
C         -1.09066       -2.44915        3.01772
C         -1.79498       -1.87926        4.07186
H         -1.72838       -2.32304        5.05117
C         -2.43463       -0.66655        3.91197
H         -2.86734       -0.18115        4.77022
C         -2.37960        0.02617        2.70304
C          1.18715       -0.30915        2.25354
C          0.51681        0.89715        2.25968
H          0.34140        1.40116        1.32769
C         -0.09531        1.39224        3.40852
C          0.17711        0.75103        4.61047
H         -0.25098        1.13270        5.52226
C          0.85039       -0.45408        4.61915
H          0.94277       -0.99892        5.54347
C          1.26122       -1.06383        3.43339
C         -2.56210        1.52574        2.75332
H         -3.43089        1.75930        3.37864
H         -2.83914        1.87514        1.76174
C         -1.29130        2.29653        3.27388
H         -1.03537        3.13151        2.61258
H         -1.49416        2.76489        4.24320
C          0.07768       -3.35863        3.30090
H          0.16170       -4.10912        2.50801
H         -0.13168       -3.93968        4.20602
C          1.42685       -2.56670        3.46084
H          1.93022       -2.85590        4.39115
H          2.13203       -2.87054        2.69177
C          2.67413       -2.27351        0.64945
C          2.06759       -3.46466        0.31197
C          3.88507       -2.26288        1.30975
C          2.62155       -4.65519        0.73533
C          4.42674       -3.45520        1.75124
C          3.76213       -4.65178        1.52163
C          2.79837        0.55117       -0.09146
C          3.12506        0.55625       -1.42710
C          3.16947        1.60203        0.71675
C          3.77795        1.63990       -1.97166
H          2.83147       -0.27059       -2.05214
C          3.82337        2.68821        0.17287
H          2.90943        1.59545        1.76251
C          4.11293        2.72174       -1.17791
H          3.98188        1.68384       -3.02932
H          4.06026        3.55386        0.77205
Pd         0.14232       -0.93874       -1.15807
Cl        -1.14039       -0.98250       -3.00572
Cl         1.73118       -2.09825       -2.25651
H          5.30142       -3.45586        2.38127
H          4.34185       -1.32226        1.57605
H          2.10816       -5.59135        0.57903
H          1.12377       -3.46363       -0.20891
C         -2.21980        6.79887        0.03505
C         -1.04874        5.82385        0.35279
C         -0.85791        5.59174        1.88462
F         -1.88414        8.03352        0.44091
F         -2.41340        6.78508       -1.29227
F         -3.33359        6.38924        0.65776
F          0.07535        6.35886       -0.12969
F          0.21867        4.80872        2.04273
F         -0.68247        6.76596        2.50553
F         -1.93033        4.94895        2.36579
C         -6.54747       -3.67985       -3.37608
C         -6.65499       -2.15288       -3.08806
C         -7.88367       -1.80315       -2.20016
F         -6.55397       -4.35714       -2.21955
F         -7.57876       -4.05691       -4.14746
F         -5.38889       -3.89058       -4.01855
F         -6.80698       -1.52922       -4.25953
F         -7.72334       -2.35411       -0.98805
F         -7.92883       -0.46718       -2.08666
F         -9.00239       -2.25805       -2.78396
C          5.54287        3.77379       -2.98103
C          4.57390        4.01954       -1.78759
C          3.29238        4.80088       -2.20111
F          6.52702        2.97322       -2.54513
F          4.88449        3.17656       -3.98399
F          6.04811        4.94951       -3.38575
F          5.22510        4.74876       -0.87744
F          2.56717        4.98529       -1.08871
F          3.63589        5.97877       -2.74261
F          2.58714        4.06133       -3.06923
C          5.49524       -5.96706        2.82850
C          4.00498       -5.85878        2.39396
C          3.02853       -5.71327        3.60568
F          5.80874       -4.93992        3.63007
F          5.68310       -7.13338        3.46527
F          6.24682       -5.91991        1.71864
F          3.68340       -6.97517        1.73594
F          1.77935       -5.72142        3.11950
F          3.20744       -6.73128        4.45790
F          3.24933       -4.53793        4.20917
