45
-71.81729524
C          2.37683        0.96348        2.49163
P          1.54130        0.77355        0.88142
P         -1.03514        0.28132       -0.83803
C         -0.42937       -0.06747       -2.52404
Cl         1.50791       -2.18701        2.01769
H          1.64274        1.16146        3.26742
H         -0.88362        0.61852       -3.23319
Cl        -1.23818       -2.75997        0.15851
C          0.49414        2.17945        0.45336
C         -0.62357        1.95826       -0.32072
C         -1.42647        3.01301       -0.70281
C         -1.10173        4.29913       -0.30858
C          0.02362        4.52262        0.46141
C          0.82629        3.46124        0.84148
H         -2.30069        2.82197       -1.30429
H         -1.72626        5.12598       -0.60427
H          0.27881        5.52473        0.76452
H          1.71273        3.62543        1.43212
Pd         0.14261       -1.06244        0.63734
H         -0.67926       -1.08731       -2.80252
H          3.08406        1.78691        2.45096
H          0.64947        0.05219       -2.56156
C         -5.48643       -0.46489       -0.26540
C         -4.96085       -0.44446       -1.54224
C         -3.60878       -0.21923       -1.72875
C         -2.79360       -0.01668       -0.63823
C         -3.31329       -0.03170        0.63605
C         -4.66504       -0.25860        0.82513
H         -6.53932       -0.64332       -0.11969
H         -5.60236       -0.60544       -2.39307
H         -3.18779       -0.20165       -2.72084
H         -2.65840        0.13150        1.47781
H         -5.07399       -0.27670        1.82195
C          4.40147       -0.14355       -2.52782
C          3.71622        1.05589       -2.51167
C          2.85576        1.34395       -1.46774
C          2.69277        0.43347       -0.44941
C          3.36446       -0.76678       -0.46576
C          4.22626       -1.05748       -1.50705
H          5.07139       -0.36883       -3.34150
H          3.84920        1.76560       -3.31160
H          2.30646        2.27127       -1.44456
H          3.18450       -1.47823        0.32452
H          4.75305       -1.99737       -1.52437
H          2.91244        0.05107        2.73773
