171
-217.83884909
P         -1.73818        0.60890       -0.15949
P          1.52042       -0.26225       -0.29317
C         -1.00991        1.68843       -1.41731
C          0.77730       -1.01737       -1.74859
C         -0.14631        1.21537       -2.40338
C          0.53386        2.14338       -3.21561
C          0.27810        3.49483       -3.06317
C         -0.61228        3.94493       -2.11309
C         -1.24028        3.03763       -1.28293
C          0.94331       -2.36406       -1.96665
C          0.39173       -2.96566       -3.08039
C         -0.34737       -2.21267       -3.96657
C         -0.55346       -0.86016       -3.75246
C          0.03398       -0.24295       -2.63035
Cl         1.80766        1.13368        2.60532
Cl        -1.29683        0.65862        3.13138
C         -1.37457       -0.07642       -4.71643
C          1.53505        1.70750       -4.22834
H         -0.80391        5.00015       -2.00528
H         -1.91805        3.38950       -0.52348
H          1.49809       -2.95543       -1.25846
H          0.53799       -4.01859       -3.25726
H          0.78804        4.19684       -3.70124
H         -0.77425       -2.67633       -4.83952
C         -2.88375       -3.60287       -1.34481
C         -1.94681       -3.42708       -0.33444
C         -1.60855       -2.12602        0.01408
C         -2.16632       -1.06018       -0.65132
C         -3.08117       -1.25167       -1.65700
C         -3.46909       -2.53676       -2.01657
H         -3.17771       -4.60228       -1.60783
H         -0.90313       -1.93579        0.80342
H         -3.49083       -0.38851       -2.15364
C         -5.18329        2.62368        1.99239
C         -3.90134        3.13326        2.15388
C         -2.86396        2.50181        1.48072
C         -3.10687        1.40952        0.68556
C         -4.38034        0.91596        0.54271
C         -5.44922        1.51696        1.19569
H         -5.99698        3.09561        2.51189
H         -1.84762        2.83662        1.60075
H         -4.53209        0.04814       -0.07328
C          3.81723       -3.50230        1.95008
C          2.85328       -2.78189        2.64190
C          2.15852       -1.79857        1.95156
C          2.43022       -1.52826        0.63145
C          3.39752       -2.24787       -0.02830
C          4.10231       -3.25841        0.61253
H          4.36151       -4.26433        2.47530
H          1.40374       -1.22831        2.45827
H          3.58680       -2.04381       -1.06778
C          4.26125        3.14282       -1.49696
C          4.52935        1.86870       -1.98446
C          3.68891        0.83386       -1.59301
C          2.62579        1.07255       -0.75794
C          2.36934        2.34131       -0.30014
C          3.18663        3.40494       -0.65719
H          4.90690        3.95691       -1.76731
H          3.86267       -0.16581       -1.94873
H          1.52087        2.50023        0.34078
Pd         0.04089        0.55781        1.33123
C         -2.47888       -5.36932        1.15094
C         -1.35578       -4.64783        0.38521
C         -0.25908       -4.24150        1.38746
C         -0.72914       -5.60775       -0.64338
H         -2.94066       -4.69987        1.87649
H         -3.25787       -5.71624        0.47282
H         -2.09188       -6.23505        1.68813
H          0.54933       -3.70947        0.88776
H         -0.65980       -3.60339        2.17445
H          0.17099       -5.12259        1.86244
H          0.07164       -5.11398       -1.19172
H         -0.30550       -6.48270       -0.15058
H         -1.46575       -5.95763       -1.36524
C         -5.72116       -3.54734       -2.44381
C         -4.53677       -2.80233       -3.08729
C         -3.93278       -3.66129       -4.21270
C         -5.06541       -1.49192       -3.70243
H         -5.41084       -4.50952       -2.03811
H         -6.14639       -2.96212       -1.62864
H         -6.50921       -3.73183       -3.17371
H         -3.57252       -4.61683       -3.83357
H         -4.67261       -3.86668       -4.98617
H         -3.09314       -3.14812       -4.67913
H         -4.26384       -0.93014       -4.17999
H         -5.82078       -1.69771       -4.46071
H         -5.52448       -0.85921       -2.94350
C         -2.17044        4.74352        3.09613
C         -3.65754        4.33520        3.07670
C         -4.07855        3.96318        4.50990
C         -4.48616        5.53493        2.58280
H         -1.54563        3.93135        3.46749
H         -1.82516        5.01767        2.09935
H         -2.01359        5.60295        3.74769
H         -3.89808        4.78950        5.19717
H         -5.13763        3.71285        4.55883
H         -3.51421        3.10008        4.86265
H         -4.21518        5.79389        1.55938
H         -5.55285        5.31479        2.60117
H         -4.31609        6.41057        3.20903
C         -7.39075        0.56778        2.46573
C         -6.88470        0.98612        1.07312
C         -6.96048       -0.23777        0.13853
C         -7.78979        2.09239        0.50074
H         -6.74628       -0.19971        2.89396
H         -7.40511        1.41336        3.15238
H         -8.40256        0.16672        2.40923
H         -6.34669       -1.05693        0.51283
H         -7.98449       -0.60275        0.06043
H         -6.62384        0.01617       -0.86616
H         -7.81251        2.96377        1.15408
H         -7.43075        2.41575       -0.47618
H         -8.81347        1.73713        0.38365
C          3.89769       -2.66485        4.91131
C          2.62094       -3.04092        4.13818
C          2.29586       -4.52833        4.36793
C          1.45128       -2.19846        4.68703
H          4.74627       -3.26609        4.58664
H          4.14901       -1.61674        4.74970
H          3.76662       -2.82015        5.98202
H          3.11125       -5.17100        4.03879
H          2.12208       -4.72907        5.42498
H          1.39923       -4.81653        3.82129
H          0.52483       -2.41949        4.15773
H          1.28587       -2.40820        5.74353
H          1.65571       -1.13211        4.59339
C          4.37332       -4.87868       -1.27363
C          5.12002       -4.08765       -0.18358
C          5.87497       -5.08280        0.71842
C          6.15011       -3.14929       -0.84014
H          3.62437       -5.53405       -0.82914
H          3.86236       -4.20983       -1.96558
H          5.06254       -5.49445       -1.85114
H          6.40706       -4.56278        1.51486
H          5.19135       -5.80164        1.16967
H          6.60933       -5.64605        0.14268
H          6.91365       -3.71824       -1.37035
H          5.67668       -2.48338       -1.56007
H          6.64662       -2.53571       -0.08866
C          6.41563        2.85636       -3.37964
C          5.74609        1.56476       -2.87110
C          5.31350        0.73556       -4.09642
C          6.77020        0.76701       -2.04514
H          5.70494        3.47394       -3.92876
H          6.82001        3.44312       -2.55527
H          7.24270        2.62460       -4.05067
H          4.88887       -0.22358       -3.80357
H          4.56650        1.27077       -4.68139
H          6.16419        0.53232       -4.74673
H          7.09613        1.34043       -1.17757
H          6.33818       -0.16510       -1.68380
H          7.64984        0.52292       -2.64047
C          1.68440        4.89606        0.75811
C          2.94887        4.82451       -0.12262
C          2.77581        5.79706       -1.30314
C          4.15893        5.24998        0.72833
H          1.77491        4.24716        1.62903
H          1.52120        5.91100        1.11998
H          0.79814        4.59954        0.19827
H          3.66425        5.82012       -1.93291
H          1.93235        5.50064       -1.92500
H          2.59228        6.81123       -0.94882
H          4.01482        6.24850        1.14057
H          4.30565        4.55927        1.55851
H          5.07372        5.26121        0.13685
H         -0.74764        0.37418       -5.48658
H          2.44688        2.30074       -4.14429
H         -1.91758        0.72378       -4.21113
H         -2.10871       -0.71030       -5.21554
H          1.14787        1.83056       -5.24065
H          1.81106        0.66068       -4.09488
