105
-153.05932372
Cl         0.64550        3.72332        1.37306
Pd        -0.10260        1.94080        0.21296
P         -0.77030        0.23217       -1.29838
N          0.06760       -1.18435       -1.95787
C          0.15132       -2.51146       -1.54846
C         -0.15343       -2.97379       -0.23967
C          0.18859       -4.29462        0.12482
C          0.09668       -4.70150        1.57877
C          0.92521       -5.94794        1.92283
C          0.65985       -7.06469        0.90901
C          1.03499       -6.61720       -0.51326
C          0.68029       -5.18447       -0.83285
C          0.88596       -4.73396       -2.13025
C          0.64980       -3.42803       -2.47387
H          0.86442       -3.08900       -3.47261
H          1.27184       -5.42113       -2.86434
H          2.11329       -6.74687       -0.66535
H          1.20098       -7.97998        1.18754
H          1.99168       -5.69037        1.90884
H          0.41466       -3.85576        2.20183
C         -0.73723       -2.09371        0.80749
C          0.09774       -1.11869        1.41292
C         -0.35180       -0.44315        2.54754
C         -1.59825       -0.70157        3.05657
C         -2.44898       -1.62408        2.45360
C         -3.80558       -1.86092        3.06213
C         -4.39906       -3.22185        2.67052
C         -4.36519       -3.39938        1.14951
C         -2.93249       -3.29625        0.59568
C         -2.02876       -2.31846        1.31576
H         -2.46955       -4.28775        0.60861
H         -4.99134       -2.62686        0.68891
H         -5.42217       -3.33186        3.05727
H         -4.47906       -1.05612        2.74509
H         -1.94012       -0.17099        3.92893
H          0.28119        0.29722        3.00110
N          1.25912       -0.76458        0.73168
P          1.82697        0.84775        0.95589
C          2.93522        1.29946       -0.37283
C          3.16154        2.62935       -0.63597
C          3.93164        2.99164       -1.72555
C          4.46384        2.02260       -2.56593
C          4.22530        0.68445       -2.28057
C          3.45624        0.32397       -1.18883
H          3.24924       -0.71279       -0.97766
H          4.63919       -0.07352       -2.92343
C          5.29840        2.41003       -3.73667
H          4.11075        4.03163       -1.93841
H          2.69459        3.37419       -0.01109
C          2.60945        0.95406        2.56290
C          3.29695       -0.14422        3.02125
C          3.90530       -0.10414        4.26366
C          3.83108        1.03848        5.04942
C          3.12182        2.13275        4.57197
C          2.51592        2.08906        3.33103
H          1.95997        2.93148        2.95606
H          3.04478        3.01814        5.17967
C          4.46280        1.07194        6.39757
H          4.43889       -0.96362        4.63192
H          3.34144       -1.03093        2.40821
H          1.10311       -0.86904       -0.27051
H          0.24595       -0.99560       -2.93648
C         -0.62170        1.42361       -2.63906
C         -1.71836        1.98290       -3.24990
C         -1.54131        2.90794       -4.26207
C         -0.26574        3.28279       -4.66354
C          0.82868        2.69946       -4.03998
C          0.64903        1.77427       -3.02814
H          1.49736        1.33752       -2.52647
H          1.82276        2.97805       -4.34518
C         -0.07526        4.26548       -5.76596
H         -2.39633        3.34956       -4.74480
H         -2.70733        1.70383       -2.92586
C         -2.50749       -0.18263       -1.15745
C         -3.06015       -0.94534       -2.15855
C         -4.41132       -1.24329       -2.13211
C         -5.21550       -0.77917       -1.10037
C         -4.63871       -0.00840       -0.10001
C         -3.28783        0.28361       -0.12673
H         -2.84017        0.88125        0.65042
H         -5.25573        0.36790        0.69785
C         -6.67470       -1.07583       -1.08704
H         -4.84994       -1.83575       -2.91670
H         -2.43047       -1.30188       -2.95869
Cl        -2.03714        3.01555       -0.17898
H          0.55569       -7.26971       -1.25424
H          0.71660       -6.28977        2.94653
H         -0.40397       -7.33246        0.93837
H         -0.95012       -4.88045        1.84406
H         -4.82576       -4.35450        0.86068
H         -2.95984       -3.01635       -0.46454
H         -3.73328       -1.77343        4.15374
H         -3.81549       -4.02223        3.14271
H          5.19100        1.69203       -4.55098
H          5.00877        3.38950       -4.11997
H          6.35337        2.45392       -3.46287
H          3.78537        0.67084        7.15259
H          5.37834        0.47916        6.41741
H          4.72278        2.09127        6.68622
H         -0.04706        3.76209       -6.73329
H         -0.88724        4.99363       -5.78832
H          0.85877        4.81607       -5.64536
H         -7.08201       -1.01273       -0.07696
H         -7.21905       -0.36798       -1.71349
H         -6.87422       -2.08069       -1.46212
