111
-148.55367572
P         -1.56367        2.62537        1.13227
P         -0.33222       -0.22680        0.56523
C         -1.04456        1.57357        2.51904
C         -0.57861        0.29947        2.27141
C         -0.49370        4.12707        1.00169
C          0.34691        4.07896       -0.25681
C         -1.09138        2.04757        3.81448
H         -1.41935        3.05735        3.99964
C         -0.69601        1.23234        4.86102
H         -0.73666        1.60049        5.87317
C         -0.24446       -0.04944        4.61028
H          0.06778       -0.68172        5.42508
C         -0.17527       -0.51418        3.30905
H          0.20734       -1.49903        3.09128
Pd        -1.65436        1.19411       -0.68240
Cl        -2.79136        2.82522       -1.72137
Cl        -1.59030       -0.28592       -2.36913
C         -1.50598        5.28898        1.04453
C         -3.21658        3.42170        1.39041
H          0.96655        4.97297       -0.35852
H          1.00692        3.20910       -0.26391
H         -0.28875        4.01227       -1.14205
H         -1.71349        5.61166        0.01503
H         -1.06344        6.16448        1.54327
H         -3.71918        3.38570        0.41500
C         -2.83934        4.87471        1.73072
C         -4.05338        2.71327        2.43469
H          0.13757        4.13040        1.89976
H         -2.73902        4.97034        2.82059
H         -3.65537        5.55755        1.44877
H         -5.03502        3.18035        2.54172
H         -4.20438        1.66313        2.17436
H         -3.57141        2.74163        3.41216
C         -0.76342       -4.70948       -0.10355
C         -1.89541       -3.93911        0.26729
C         -1.72228       -2.58320        0.49566
C         -0.50486       -1.98590        0.29945
C          0.56540       -2.70582       -0.16371
C          0.45990       -4.06340       -0.41512
O         -0.84635       -6.12716       -0.12995
C         -3.29254       -4.55694        0.43463
H         -2.54107       -1.96955        0.83066
H          1.49323       -2.18724       -0.33116
C          1.66583       -4.80818       -1.00930
C          3.63611        1.44336       -0.92654
C          3.28237        1.58223        0.44018
C          2.09151        1.02177        0.86989
C          1.24112        0.40938       -0.01293
C          1.52455        0.37659       -1.35264
C          2.69811        0.91489       -1.84955
O          4.93655        1.80930       -1.36485
C          4.17223        2.32021        1.45248
H          1.80691        1.06351        1.90628
H          0.78871       -0.05084       -2.01095
C          2.93284        0.92142       -3.36800
C         -3.46943       -5.03196        1.88453
C         -4.39007       -3.51592        0.11727
C         -3.49743       -5.73335       -0.53738
C          2.49018       -3.86710       -1.91783
C          2.56698       -5.30821        0.12950
C          1.21239       -5.99016       -1.88541
C         -0.50637       -6.74981        1.10236
H         -4.45859       -5.46329        2.03614
H         -2.73072       -5.78636        2.14458
H         -3.35320       -4.20051        2.57935
H         -4.42120       -2.72264        0.86259
H         -4.22303       -3.06311       -0.85978
H         -5.37472       -3.98271        0.10608
H         -4.51069       -6.12810       -0.46730
H         -3.32723       -5.41514       -1.56536
H         -2.81148       -6.54915       -0.32291
H          1.85164       -3.39588       -2.66461
H          2.98567       -3.08375       -1.34616
H          3.26857       -4.41972       -2.44345
H          2.02975       -5.98736        0.78744
H          3.43583       -5.83592       -0.26307
H          2.92303       -4.47400        0.73360
H          2.06428       -6.47481       -2.36173
H          0.69215       -6.74282       -1.29836
H          0.53454       -5.64955       -2.66739
H         -1.34365       -7.35614        1.44768
H          0.35198       -7.40542        0.95711
H         -0.26635       -5.99805        1.85530
C          5.88408        0.75048       -1.31290
C          5.16239        1.32680        2.07820
C          4.93356        3.47611        0.77830
C          3.31822        2.94286        2.58057
C          3.64160       -0.37774       -3.77893
C          1.58832        1.01187       -4.12628
C          3.76981        2.14138       -3.79334
H          5.80186        0.87873        1.32148
H          5.80153        1.82079        2.80961
H          4.63123        0.52043        2.58343
H          5.51412        4.04103        1.50718
H          5.62316        3.10893        0.02218
H          4.23909        4.16123        0.29303
H          3.93202        3.56521        3.23131
H          2.52909        3.56983        2.16726
H          2.85875        2.18083        3.20832
H          4.59986       -0.48069       -3.27535
H          3.03562       -1.24491       -3.51872
H          3.82082       -0.40191       -4.85349
H          0.99638        1.85369       -3.76780
H          1.75460        1.15032       -5.19422
H          0.99750        0.10450       -4.01065
H          3.29393        3.06543       -3.46659
H          3.88159        2.18170       -4.87654
H          4.76678        2.10871       -3.36100
H          5.41995       -0.15738       -0.92536
H          6.27569        0.56072       -2.31208
H          6.71616        1.03681       -0.66982
