72
-108.40279615
Cl        -1.70415        0.88510        2.71492
Cl         0.97365       -0.92103        2.75603
P          1.09565       -1.12300       -0.28633
P         -2.22964        0.11133       -0.38444
C         -3.22533       -1.49313       -0.18003
C         -3.59033       -1.67871        1.29493
C         -4.48736       -1.44340       -1.03380
C         -3.32867        1.64505       -0.11543
C         -4.15698        1.94038       -1.37329
C         -1.43298        0.44945       -2.06018
C         -1.49385       -0.69519       -3.05030
C          1.13309        0.22723       -1.50166
C         -0.01807        0.99361       -1.97503
C          0.49087        2.06282       -2.83650
C          1.93722        1.97122       -2.85690
C          2.33145        0.82762       -2.05618
C         -2.35987       -2.67338       -0.59581
H         -2.70459       -1.66287        1.92981
H         -4.27246       -0.91273        1.65308
H         -5.18384       -0.68771       -0.67456
H         -5.00914       -2.40123       -1.00188
C         -4.27384        1.48170        1.07092
H         -4.93912        2.66832       -1.15143
H         -4.64104        1.04650       -1.76138
H         -2.04398        1.26265       -2.46233
H         -0.83417       -1.50222       -2.74003
H         -1.14859       -0.37743       -4.03631
H         -2.50206       -1.09014       -3.16922
H         -0.11885        2.75705       -3.41738
H          2.61153        2.61595       -3.42492
Pd        -0.52676       -0.27513        1.20976
H          3.35024        0.48757       -1.85850
C         -2.37741        2.80357        0.14491
H         -3.55366        2.37204       -2.17099
H         -3.74196        1.16434        1.96540
H         -4.76030        2.43011        1.30350
H         -5.06542        0.76582        0.85713
H         -1.62266        2.87376       -0.63952
H         -2.91717        3.75202        0.17886
H         -1.87503        2.67950        1.10263
H         -4.08403       -2.63975        1.44795
H         -4.25824       -1.22805       -2.07630
H         -1.43938       -2.68820       -0.01535
H         -2.87723       -3.61690       -0.41355
H         -2.10715       -2.64776       -1.65256
C          2.77351       -1.22824        0.39742
C          3.24401       -2.25510        1.17793
C          4.56668       -1.95322        1.50123
C          4.85217       -0.75239        0.90048
O          3.76094       -0.29733        0.21872
H          2.68737       -3.12083        1.49566
H          5.23270       -2.54534        2.10737
H          5.79832       -0.22793        0.95203
C          0.73399       -2.72461       -1.03100
C          0.65312       -3.89282       -0.31354
C          0.36502       -4.91158       -1.22268
C          0.28288       -4.32108       -2.45983
O          0.50351       -2.97719       -2.35576
H          0.76664       -3.99225        0.75393
H          0.23202       -5.95710       -0.99743
H          0.07207       -4.83145       -3.39142
Fe         1.29067        2.14251       -0.91446
C          2.96093        2.81052        0.04201
C          2.16364        2.01721        0.95669
C          0.84718        2.61502        1.01063
C          0.84050        3.80842        0.18405
C          2.15196        3.92259       -0.42703
H          4.00583        2.62199       -0.21555
H          2.47825        1.11084        1.47726
H          0.04216        2.27172        1.66287
H          0.01430        4.51363        0.06868
H          2.48116        4.71864       -1.09906
