59
-75.79860411
Cl         1.62001        0.98984        2.29216
P          1.66541        0.07091       -0.78957
P         -1.47972       -0.23000       -0.78726
C          0.69590        0.37694       -2.33024
H          0.39411        1.42735       -2.34273
H          1.34442        0.20676       -3.19517
C         -0.50577       -0.52655       -2.32900
H         -0.19867       -1.57574       -2.33663
H         -1.15343       -0.36617       -3.19662
C          2.46431       -1.59650       -0.88452
H          2.24959       -1.98953       -1.88553
C          3.17323        1.13007       -0.62448
H          3.27965        1.34380        0.44608
C         -2.60486       -1.61934       -0.30444
H         -2.43629       -1.78967        0.76601
C         -2.71636        1.12694       -1.00964
H         -2.81664        1.28507       -2.09029
C          3.96710       -1.29134       -0.73187
H          4.26298       -1.48674        0.30784
H          4.56473       -1.98426       -1.34309
C          4.29607        0.18548       -1.08730
H          4.41776        0.28588       -2.17487
H          5.25939        0.49186       -0.65122
C         -4.00808       -1.03067       -0.53830
H         -4.35381       -1.32604       -1.53847
H         -4.73046       -1.47068        0.16596
C         -4.00634        0.51961       -0.43001
H         -4.08870        0.81015        0.62649
H         -4.89046        0.94907       -0.92540
C          1.89745       -2.52342        0.18383
H          0.80146       -2.53460        0.10676
H          2.10964       -2.09364        1.17227
C          3.06805        2.43444       -1.40425
H          4.05745        2.91112       -1.44443
H          2.81523        2.20616       -2.44772
C         -2.31557       -2.89327       -1.08924
H         -2.45552       -2.68931       -2.15905
H         -1.25372       -3.15207       -0.97974
C         -2.26064        2.41036       -0.32700
H         -2.13883        2.21625        0.74688
H         -1.25698        2.67203       -0.68816
C          2.44115       -3.94130        0.09378
H          3.52618       -3.95864        0.21051
H          2.21467       -4.38853       -0.87599
H          2.01811       -4.59161        0.86284
C          2.05182        3.39455       -0.80433
H          2.32929        3.67596        0.21330
H          1.06268        2.93957       -0.74619
H          1.95908        4.31371       -1.38716
C         -3.18242       -4.06670       -0.65737
H         -2.95442       -4.97434       -1.22095
H         -4.24283       -3.85096       -0.79966
H         -3.03969       -4.29241        0.40112
C         -3.21503        3.57452       -0.54588
H         -2.86561        4.48753       -0.05838
H         -3.33218        3.79323       -1.60895
H         -4.20824        3.35272       -0.15144
Cl        -1.61470        0.18526        2.35456
Pd         0.06549        0.23090        0.86999
