105
-153.06129149
Cl         0.54785        3.72192        1.42751
Pd        -0.11212        1.95814        0.19326
P         -0.73466        0.22342       -1.30759
N          0.14705       -1.18794       -1.92062
C          0.23105       -2.51052       -1.49583
C         -0.10991       -2.96959       -0.19374
C          0.19650       -4.30006        0.16937
C          0.05124       -4.73146        1.61100
C         -0.10443       -6.24924        1.77996
C          1.01329       -6.98458        1.03467
C          0.99482       -6.64198       -0.46455
C          0.71177       -5.19066       -0.77583
C          0.96799       -4.73656       -2.06227
C          0.75414       -3.42770       -2.40692
H          0.99827       -3.08820       -3.39873
H          1.36252       -5.42612       -2.78947
H          1.95129       -6.91951       -0.92573
H          1.98225       -6.69771        1.46243
H         -0.12016       -6.52889        2.84292
H          0.93786       -4.39039        2.15896
C         -0.70139       -2.07979        0.84165
C          0.11891       -1.08260        1.43137
C         -0.34909       -0.38159        2.54328
C         -1.60108       -0.63024        3.04282
C         -2.44074       -1.57382        2.45784
C         -3.79936       -1.79490        3.08168
C         -4.73209       -2.74050        2.30283
C         -3.95271       -3.88356        1.64463
C         -2.88814       -3.32183        0.69286
C         -1.99314       -2.30214        1.35182
H         -2.28776       -4.13372        0.26642
H         -4.62992       -4.57028        1.11728
H         -5.26123       -2.17475        1.52675
H         -4.28194       -0.81857        3.21701
H         -1.95450       -0.07993        3.89830
H          0.27409        0.37406        2.98521
N          1.28503       -0.72774        0.75864
P          1.82506        0.89650        0.97037
C          2.92697        1.36571       -0.35770
C          3.45929        0.40271       -1.18115
C          4.22173        0.78099       -2.27147
C          4.44211        2.12419       -2.54792
C          3.89900        3.08030       -1.69982
C          3.13578        2.70035       -0.61132
H          2.66123        3.43457        0.02064
H          4.06446        4.12396       -1.90566
C          5.26904        2.53241       -3.71701
H          4.64420        0.03292       -2.92032
H          3.26629       -0.63809       -0.97709
C          2.61097        1.02212        2.57515
C          3.33914       -0.05463        3.02171
C          3.95614       -0.00095        4.25937
C          3.83960        1.12940        5.05769
C          3.10485        2.20846        4.58455
C          2.49051        2.15112        3.34837
H          1.90953        2.97942        2.98033
H          3.01687        3.09367        5.19103
C          4.52293        1.19839        6.37911
H          4.53176       -0.83930        4.61275
H          3.41183       -0.93455        2.40159
H          1.14247       -0.84632       -0.24353
H          0.36605       -1.00360       -2.89177
C         -0.60922        1.37889       -2.68152
C         -1.71585        1.85168       -3.34491
C         -1.55991        2.74812       -4.38587
C         -0.29557        3.18017       -4.76455
C          0.80999        2.68281       -4.08836
C          0.65115        1.78626       -3.04772
H          1.50688        1.41434       -2.50810
H          1.79599        3.00519       -4.37614
C         -0.12686        4.13106       -5.89799
H         -2.42300        3.12218       -4.90957
H         -2.69712        1.52737       -3.04020
C         -2.46041       -0.23488       -1.16321
C         -2.97668       -1.07046       -2.12483
C         -4.31550       -1.41900       -2.08828
C         -5.14369       -0.93134       -1.08699
C         -4.60238       -0.09025       -0.12362
C         -3.26467        0.25564       -0.16269
H         -2.84530        0.90990        0.58394
H         -5.23467        0.29553        0.65760
C         -6.57949       -1.32386       -1.04509
H         -4.72464       -2.07617       -2.83645
H         -2.32693       -1.44902       -2.89832
Cl        -2.02618        3.00660       -0.34303
H          0.23955       -7.25498       -0.97095
H         -1.07655       -6.56092        1.37759
H          0.93425       -8.07004        1.18891
H         -0.79029       -4.21272        2.08222
H         -3.46486       -4.48611        2.42099
H         -3.37756       -2.84938       -0.16488
H         -3.64824       -2.18613        4.09497
H         -5.51938       -3.13733        2.95913
H          4.93481        3.48956       -4.11998
H          6.31748        2.63381       -3.43350
H          5.20662        1.79644       -4.51989
H          4.60485        0.20945        6.83227
H          5.52968        1.60488        6.27360
H          3.97362        1.83558        7.07359
H         -0.04902        3.59531       -6.84501
H         -0.97366        4.81535       -5.96637
H          0.77493        4.73275       -5.77620
H         -7.11447       -0.79448       -0.25547
H         -7.07236       -1.09591       -1.99123
H         -6.68368       -2.39403       -0.86013
