111
-148.54933360
P         -2.36024        2.36029       -0.24169
P          0.00392        0.35781        0.49494
C         -1.76714        2.25478        1.46403
C         -0.78114        1.34778        1.78695
C         -2.43640        4.09907       -0.86126
C         -1.61669        4.23441       -2.12619
C         -2.32745        3.04519        2.44674
H         -3.08119        3.76869        2.18185
C         -1.91753        2.90429        3.76123
H         -2.35651        3.51896        4.53005
C         -0.95576        1.96846        4.08949
H         -0.64538        1.84877        5.11445
C         -0.38778        1.18663        3.09965
H          0.35444        0.44251        3.34364
Pd        -1.16520        0.82122       -1.47015
Cl        -2.62481        1.01911       -3.16119
Cl         0.03323       -0.81638       -2.44534
C         -3.94737        4.33597       -1.06716
C         -4.13348        1.85734       -0.44859
H         -1.99686        3.56655       -2.90194
H         -1.65109        5.25312       -2.52011
H         -0.56974        3.97348       -1.95194
H         -4.09890        5.02244       -1.91289
H         -4.36895        4.84931       -0.19051
H         -4.12543        0.91121       -1.00711
C         -4.71432        3.00378       -1.30081
C         -4.83175        1.67539        0.88216
H         -2.03440        4.74218       -0.06659
H         -5.78386        3.12574       -1.07537
H         -4.66338        2.73764       -2.36690
H         -4.89373        2.62333        1.41847
H         -5.85182        1.30607        0.75281
H         -4.29418        0.97115        1.51978
C         -1.21849       -4.01030        0.76400
C          0.14751       -3.68993        0.55437
C          0.50496       -2.35371        0.49780
C         -0.42114       -1.36565        0.70420
C         -1.72028       -1.67036        1.01817
C         -2.14045       -2.98781        1.10790
O         -1.67298       -5.34117        0.56807
C          1.22487       -4.75795        0.31406
H          1.51216       -2.06608        0.25512
H         -2.41162       -0.85887        1.17078
C         -3.58913       -3.27791        1.52847
C          4.50921        1.08371        0.17231
C          3.83268        0.32713       -0.81680
C          2.46461        0.16421       -0.69201
C          1.77690        0.64946        0.38921
C          2.44520        1.30553        1.39103
C          3.81446        1.50568        1.33404
O          5.87060        1.44366       -0.01467
C          4.55103       -0.28808       -2.02859
H          1.90287       -0.33674       -1.45889
H          1.87809        1.67791        2.22382
C          4.52012        2.18956        2.51658
C          1.35330       -5.00900       -1.19630
C          2.59124       -4.28302        0.85842
C          0.88591       -6.07094        1.04267
C         -4.06398       -2.23958        2.56971
C         -4.49943       -3.19516        0.29377
C         -3.71738       -4.66162        2.19124
C         -2.10815       -5.60319       -0.76052
H          2.12743       -5.74653       -1.40629
H          0.41784       -5.37405       -1.61431
H          1.61145       -4.08851       -1.71936
H          2.50880       -3.98529        1.90334
H          3.33131       -5.08039        0.79456
H          2.98218       -3.43904        0.29326
H          1.68475       -6.80251        0.92363
H          0.74435       -5.89308        2.10814
H         -0.02692       -6.51597        0.65489
H         -4.15316       -1.24584        2.13613
H         -5.04439       -2.50607        2.96389
H         -3.36881       -2.18562        3.40713
H         -5.53873       -3.38430        0.56104
H         -4.44227       -2.20679       -0.16195
H         -4.20692       -3.92358       -0.45936
H         -3.03794       -4.74528        3.03879
H         -4.73178       -4.83119        2.55145
H         -3.47917       -5.46042        1.49378
H         -1.52794       -6.42488       -1.18020
H         -3.15849       -5.89388       -0.75309
H         -1.98219       -4.71566       -1.38218
C          6.05842        2.68252       -0.68744
C          4.57282        0.73133       -3.17744
C          5.98528       -0.71267       -1.66477
C          3.81699       -1.55865       -2.51572
C          4.54323        3.70833        2.28748
C          3.77271        1.90396        3.83957
C          5.95394        1.65611        2.69000
H          5.06800        0.31887       -4.05610
H          3.55879        1.01156       -3.46179
H          5.09850        1.63870       -2.89054
H          6.59445        0.14346       -1.38605
H          5.97826       -1.40542       -0.82387
H          6.47358       -1.20465       -2.50560
H          2.84067       -1.32557       -2.93773
H          4.38944       -2.06098       -3.29508
H          3.67840       -2.26368       -1.69737
H          5.08036        3.96230        1.37700
H          3.53018        4.09908        2.19437
H          5.02785        4.22103        3.11800
H          2.80044        2.39371        3.86811
H          3.62308        0.83336        3.97716
H          4.34113        2.27433        4.69244
H          6.43146        2.09324        3.56658
H          6.57251        1.89146        1.82764
H          5.94824        0.57340        2.81129
H          5.09569        3.13134       -0.93508
H          6.62407        3.36244       -0.05061
H          6.62980        2.51954       -1.60108
