111
-148.55392915
P         -1.42408        2.62063        1.18671
P         -0.31966       -0.26944        0.55555
C         -0.92940        1.53113        2.54954
C         -0.50937        0.24657        2.27570
C         -0.30703        4.08892        1.06602
C          0.53114        4.02577       -0.19331
C         -0.94166        1.98884        3.85139
H         -1.23627        3.00547        4.05471
C         -0.55394        1.14809        4.88036
H         -0.56651        1.50344        5.89781
C         -0.14402       -0.14240        4.60454
H          0.16394       -0.79453        5.40521
C         -0.11165       -0.59137        3.29648
H          0.23846       -1.58408        3.06091
Pd        -1.63574        1.22612       -0.63396
Cl        -2.54392        2.91649       -1.78812
Cl        -1.65713       -0.31506       -2.27283
C         -1.28268        5.28150        1.11832
C         -3.05034        3.46576        1.44996
H          1.16743        3.13884       -0.20522
H         -0.10614        3.98125       -1.07869
H          1.17484        4.90313       -0.29016
H         -1.48008        5.61847        0.09141
H         -0.81306        6.13891        1.62371
H         -3.55137        3.45128        0.47273
C         -2.62831        4.90365        1.80153
C         -3.90674        2.77506        2.48991
H          0.32521        4.06603        1.96321
H         -2.52488        4.98727        2.89212
H         -3.42281        5.61371        1.52529
H         -4.09343        1.73312        2.21983
H         -3.41995        2.77756        3.46554
H         -4.87194        3.27342        2.60518
C         -0.90189       -4.73846       -0.11631
C         -1.75465       -4.04160        0.77722
C         -1.53323       -2.68835        0.97677
C         -0.54924       -2.02427        0.29125
C          0.20978       -2.67246       -0.64735
C          0.02863       -4.01999       -0.90939
O         -0.96013       -6.15556       -0.19493
C         -2.88942       -4.73976        1.54308
H         -2.12693       -2.12987        1.67995
H          0.95058       -2.10551       -1.18269
C          0.83551       -4.67484       -2.04174
C          3.60280        1.47108       -0.98290
C          3.33092        1.45405        0.40904
C          2.15844        0.85820        0.84177
C          1.24933        0.35507       -0.05187
C          1.45846        0.46839       -1.40138
C          2.60764        1.05289       -1.90257
O          4.87550        1.89062       -1.45369
C          4.28135        2.07675        1.44363
H          1.92964        0.79462        1.89091
H          0.67901        0.12930       -2.06053
C          2.74863        1.24605       -3.42063
C         -4.02938       -3.74570        1.86057
C         -3.50480       -5.87493        0.70451
C         -2.34257       -5.29547        2.86666
C          2.16581       -5.20204       -1.48372
C          0.04157       -5.81979       -2.69655
C          1.14047       -3.64543       -3.15434
C         -0.06423       -6.82362        0.68428
H         -4.36249       -3.23649        0.95658
H         -4.88726       -4.26464        2.28762
H         -3.71839       -2.99400        2.58460
H         -4.35303       -6.32657        1.21827
H         -3.85193       -5.49672       -0.25644
H         -2.78057       -6.66242        0.51101
H         -3.12896       -5.78798        3.43806
H         -1.55037       -6.01951        2.69265
H         -1.93046       -4.49429        3.47981
H          2.74884       -4.39113       -1.04767
H          2.00133       -5.94550       -0.70753
H          2.76349       -5.66266       -2.26992
H          0.58409       -6.23921       -3.54342
H         -0.14458       -6.62708       -1.99265
H         -0.92259       -5.46080       -3.05507
H          1.58976       -4.13135       -4.02009
H          0.22797       -3.14917       -3.48398
H          1.84140       -2.88436       -2.81567
H          0.49844       -6.10076        1.27636
H         -0.62666       -7.47916        1.34895
H          0.62642       -7.43750        0.10649
C          5.82227        0.83806       -1.58369
C          5.30888        1.02565        1.88863
C          4.99842        3.30836        0.86141
C          3.49839        2.55850        2.68678
C          1.35997        1.40705       -4.08166
C          3.54818        2.52196       -3.74099
C          3.44182        0.01866       -4.03017
H          5.89990        0.67181        1.04739
H          5.99230        1.43735        2.63087
H          4.81050        0.16282        2.32991
H          4.27460        4.03956        0.50279
H          5.62337        3.78991        1.61307
H          5.63928        3.03586        0.02643
H          4.14931        3.11203        3.36311
H          2.67971        3.21691        2.39823
H          3.08556        1.72464        3.25268
H          0.78490        0.48311       -4.04280
H          0.78377        2.19030       -3.58961
H          1.46044        1.67621       -5.13272
H          3.59387        2.69664       -4.81560
H          3.08532        3.39137       -3.27513
H          4.56972        2.45181       -3.37540
H          4.43110       -0.12822       -3.60364
H          3.55271        0.12840       -5.10863
H          2.86193       -0.88398       -3.84130
H          6.15970        0.77601       -2.61813
H          6.68818        1.04653       -0.95559
H          5.37777       -0.11293       -1.28742
