111
-148.55485000
P         -2.59733        2.12516        0.28064
P          0.06062        0.41244        0.49698
C         -1.78332        1.92213        1.88881
C         -0.60476        1.21246        1.96892
C         -3.35495        3.80523        0.10567
C         -2.53835        4.69362       -0.80720
C         -2.33942        2.46213        3.03092
H         -3.27263        2.99730        2.96816
C         -1.70469        2.29827        4.25017
H         -2.13817        2.72009        5.14225
C         -0.51910        1.59278        4.32591
H         -0.02627        1.46341        5.27542
C          0.03032        1.04344        3.18145
H          0.94651        0.47526        3.22478
Pd        -1.09443        1.32783       -1.28328
Cl        -2.48900        2.15108       -2.83798
Cl         0.47187        0.59335       -2.71401
C         -4.77420        3.48681       -0.39997
C         -4.09902        1.06270        0.07539
H         -2.98792        5.68428       -0.90706
H         -1.51989        4.81864       -0.43187
H         -2.46736        4.26332       -1.80680
H         -4.77065        3.51365       -1.49840
H         -5.47913        4.27202       -0.08689
H         -4.00836        0.59676       -0.91504
C         -5.25036        2.08578        0.08089
C         -4.18068        0.00902        1.15884
H         -3.39938        4.23270        1.11534
H         -5.64826        2.16492        1.10193
H         -6.08760        1.72310       -0.53460
H         -4.20653        0.47096        2.14751
H         -5.07911       -0.60363        1.05421
H         -3.31385       -0.65475        1.12997
C         -1.29944       -3.93217        0.28651
C         -0.95757       -3.23523       -0.90019
C         -0.52664       -1.92611       -0.78599
C         -0.49871       -1.28897        0.42621
C         -0.93416       -1.92247        1.56024
C         -1.37804       -3.23363        1.51890
O         -1.52620       -5.33370        0.24953
C         -1.02796       -3.87425       -2.29566
H         -0.20051       -1.37593       -1.65126
H         -0.92016       -1.37527        2.48604
C         -1.91004       -3.88669        2.80415
C          4.57289        0.76795        0.00221
C          3.91438       -0.43877       -0.34543
C          2.54153       -0.50456       -0.18167
C          1.83960        0.53840        0.36293
C          2.48398        1.66891        0.79271
C          3.85824        1.79693        0.66847
O          5.93406        0.96271       -0.35320
C          4.64913       -1.65098       -0.93830
H          1.99457       -1.37477       -0.49851
H          1.89237        2.45912        1.22197
C          4.54599        3.05243        1.22761
C         -1.36678       -2.80807       -3.36342
C          0.33397       -4.49674       -2.63847
C         -2.13419       -4.94250       -2.36356
C         -2.53977       -2.82738        3.73745
C         -3.01080       -4.91487        2.48591
C         -0.75001       -4.56633        3.54690
C         -0.35004       -6.11316        0.42669
H         -1.54805       -3.27383       -4.33169
H         -2.26226       -2.25250       -3.08614
H         -0.55268       -2.09779       -3.49898
H          0.31290       -4.96454       -3.62237
H          1.11401       -3.73589       -2.64423
H          0.61583       -5.25439       -1.91091
H         -3.09581       -4.51699       -2.07853
H         -2.22733       -5.34700       -3.37111
H         -1.92609       -5.77309       -1.69395
H         -1.79194       -2.14257        4.13449
H         -3.29422       -2.24452        3.21009
H         -3.02239       -3.30276        4.59109
H         -3.81703       -4.45059        1.91889
H         -2.62203       -5.74209        1.89705
H         -3.43432       -5.33126        3.39954
H         -0.29180       -5.34099        2.93678
H          0.02357       -3.84125        3.79874
H         -1.09532       -5.02719        4.47202
H         -0.17318       -6.71855       -0.46205
H          0.51136       -5.46777        0.60370
H         -0.48234       -6.78419        1.27533
C          6.11608        1.55364       -1.63392
C          3.93998       -2.96623       -0.54038
C          4.65039       -1.53874       -2.47053
C          6.09180       -1.74306       -0.40955
C          3.78088        3.58884        2.45907
C          5.97974        2.73978        1.69364
C          4.56706        4.14486        0.14795
H          4.52516       -3.83099       -0.85241
H          3.80731       -3.02368        0.53965
H          2.96222       -3.05708       -1.01050
H          5.15773       -0.63458       -2.79865
H          5.15344       -2.39189       -2.92489
H          3.63096       -1.50318       -2.85432
H          6.68393       -0.88560       -0.71887
H          6.09960       -1.77862        0.67931
H          6.58927       -2.63822       -0.78200
H          4.33299        4.39909        2.93476
H          2.80396        3.98524        2.18662
H          3.63765        2.80190        3.19917
H          6.44255        3.61378        2.15127
H          5.97772        1.93389        2.42678
H          6.60923        2.43243        0.86231
H          3.55432        4.39346       -0.16840
H          5.11740        3.81921       -0.73149
H          5.03720        5.05415        0.52157
H          6.68006        2.48068       -1.53196
H          6.68443        0.87753       -2.27235
H          5.15048        1.76360       -2.09584
