111
-148.55289190
P         -2.67317        1.81715        0.63227
P          0.22726        0.52674        0.44973
C         -1.70857        1.52054        2.14278
C         -0.42566        1.02373        2.05616
C         -3.81774        3.25486        0.88306
C         -3.63530        4.32060       -0.17440
C         -2.25782        1.78941        3.38097
H         -3.26894        2.15562        3.44858
C         -1.51581        1.57122        4.52880
H         -1.94536        1.78184        5.49462
C         -0.22723        1.08238        4.43805
H          0.35065        0.91036        5.33119
C          0.31654        0.80258        3.19784
H          1.31449        0.40408        3.11362
Pd        -1.12596        1.63029       -1.08262
Cl        -2.64883        2.51454       -2.46611
Cl         0.43782        1.31387       -2.66150
C         -5.21189        2.59253        0.86837
C         -3.89524        0.47631        0.26547
H         -4.27198        5.18796        0.01518
H         -2.59908        4.66330       -0.21959
H         -3.89831        3.93282       -1.15906
H         -5.94633        3.29386        0.44618
H         -5.54633        2.40005        1.89839
H         -3.57471       -0.00166       -0.67065
C         -5.21084        1.25724        0.07135
C         -3.94159       -0.53688        1.38837
H         -3.58734        3.67087        1.87280
H         -6.06087        0.62620        0.36963
H         -5.36087        1.47287       -0.99691
H         -4.65987       -1.33379        1.18152
H         -2.96406       -0.99643        1.54659
H         -4.23531       -0.06013        2.32536
C         -1.43467       -3.63023       -0.37757
C         -1.08890       -2.78116       -1.45935
C         -0.56323       -1.53547       -1.16855
C         -0.33878       -1.14298        0.12418
C         -0.56413       -2.00270        1.16675
C         -1.06633       -3.27431        0.94580
O         -2.18976       -4.80933       -0.61475
C         -1.33778       -3.15916       -2.92691
H         -0.33751       -0.83545       -1.95355
H         -0.36356       -1.65735        2.16593
C         -1.23448       -4.22523        2.14072
C          4.77394        0.57979        0.18048
C          4.11901       -0.39191        0.97965
C          2.73428       -0.38647        1.01363
C          2.01356        0.58717        0.37207
C          2.64591        1.59252       -0.31053
C          4.02737        1.63505       -0.40327
O          6.16852        0.47453       -0.06756
C          4.87811       -1.45932        1.78397
H          2.19515       -1.16089        1.53193
H          2.03791        2.33179       -0.80206
C          4.68880        2.78481       -1.17904
C         -0.30147       -2.47745       -3.84953
C         -1.20187       -4.67723       -3.14090
C         -2.74182       -2.68796       -3.33642
C         -0.12917       -3.97194        3.19144
C         -2.60267       -3.98407        2.79642
C         -1.10722       -5.69611        1.70431
C         -3.59638       -4.61801       -0.52736
H          0.71353       -2.68129       -3.50972
H         -0.39274       -2.84449       -4.87148
H         -0.44075       -1.39801       -3.88526
H         -1.31792       -4.93661       -4.19291
H         -0.22334       -5.02491       -2.81143
H         -1.95609       -5.22564       -2.58207
H         -2.83663       -1.60909       -3.21399
H         -2.94601       -2.92859       -4.37932
H         -3.50897       -3.15857       -2.72606
H         -0.16641       -4.72242        3.98073
H          0.85819       -4.01739        2.73251
H         -0.24001       -2.99981        3.66939
H         -2.68162       -2.95969        3.15946
H         -3.41294       -4.14851        2.08981
H         -2.75278       -4.65319        3.64326
H         -1.15781       -6.36558        2.56264
H         -1.90393       -5.97791        1.02061
H         -0.15754       -5.86498        1.19775
H         -3.82584       -3.57337       -0.31334
H         -4.06317       -4.90627       -1.46914
H         -4.00423       -5.24836        0.26259
C          6.49726       -0.32741       -1.19526
C          4.09046       -1.84075        3.05873
C          5.05320       -2.71823        0.92136
C          6.24984       -0.93631        2.24768
C          4.83100        2.38156       -2.65476
C          3.82683        4.06542       -1.10171
C          6.06621        3.13489       -0.58748
H          4.68022       -2.50040        3.69485
H          3.83950       -0.95321        3.63904
H          3.16757       -2.36781        2.82166
H          5.57875       -3.49839        1.47147
H          4.08453       -3.11394        0.61675
H          5.62062       -2.50279        0.01916
H          6.13527       -0.01991        2.82568
H          6.75842       -1.67014        2.87245
H          6.89852       -0.71800        1.40329
H          5.45208        1.49583       -2.76348
H          3.85615        2.15727       -3.08728
H          5.28312        3.18364       -3.23747
H          4.35320        4.91268       -1.54065
H          2.89088        3.95467       -1.64724
H          3.59512        4.31520       -0.06669
H          6.50599        3.99100       -1.09850
H          6.76132        2.30432       -0.68097
H          5.97839        3.37950        0.47053
H          7.06553        0.26549       -1.91179
H          7.11765       -1.16639       -0.88071
H          5.59097       -0.70333       -1.67174
