58
-89.86863071
P          1.73774       -0.27242        0.88955
C          1.52729        1.51448        0.78873
C          1.52783        2.08169       -0.46574
C          1.33256        3.44275       -0.61110
C          1.14192        4.23027        0.50612
C          1.15305        3.66065        1.76371
C          1.34873        2.29913        1.90493
H          1.37222        1.85432        2.88538
H          1.67461        1.44992       -1.32812
C          3.40887       -0.74280        0.43688
C          3.72109       -2.07609        0.30288
C          5.00517       -2.44844       -0.05367
C          5.96654       -1.48145       -0.27258
C          5.64804       -0.14454       -0.13727
C          4.36328        0.22450        0.21835
H          4.09871        1.26421        0.32298
H          2.95608       -2.81931        0.46446
C          1.33008       -0.97201        2.54681
C         -0.14003       -1.30808        2.75170
C         -1.08841       -0.14145        2.49788
P         -1.59691       -0.04672        0.72814
C         -3.04005       -1.08910        0.49851
C         -2.90495       -2.45579        0.41291
C         -4.02585       -3.24707        0.23652
C         -5.27428       -2.66324        0.14925
C         -5.40511       -1.29132        0.23654
C         -4.28219       -0.50253        0.41197
H         -4.36683        0.57052        0.47767
H         -1.92383       -2.89926        0.46830
C         -1.93606        1.63947        0.20602
C         -1.98154        1.90438       -1.14340
C         -2.22652        3.18982       -1.58853
C         -2.43199        4.20334       -0.67376
C         -2.39952        3.93208        0.68007
C         -2.15315        2.64444        1.12137
H         -2.13046        2.42262        2.17570
H         -1.82904        1.09536       -1.83965
Pd         0.10109       -0.78923       -0.66829
Cl         1.74403       -1.35628       -2.08823
Cl        -1.50333       -1.19577       -2.19345
H         -2.01586       -0.23813        3.06832
H         -0.63220        0.80307        2.79370
H         -0.42153       -2.14305        2.09561
H         -0.28153       -1.68965        3.77504
H          1.95235       -1.86163        2.67150
H          1.67404       -0.25344        3.29210
H          1.32217        3.88425       -1.59398
H          1.00693        4.27656        2.63588
H          5.25207       -3.49145       -0.16498
H          6.39702        0.61044       -0.31138
H         -3.92313       -4.31726        0.16281
H         -6.37875       -0.83495        0.16567
H         -2.25633        3.39823       -2.64531
H         -2.56238        4.72335        1.39327
H          0.98290        5.29061        0.39640
H          6.96634       -1.77058       -0.55281
H         -6.14767       -3.27925        0.00978
H         -2.62027        5.20756       -1.01690
