111
-148.55702052
P         -2.67315        1.80907        0.66466
P          0.20235        0.50499        0.46115
C         -1.71599        1.50600        2.17329
C         -0.43757        0.99936        2.07696
C         -3.67068        3.36297        0.78875
C         -3.02373        4.50667        0.03852
C         -2.25749        1.78184        3.41266
H         -3.26442        2.15926        3.48293
C         -1.51074        1.55732        4.55623
H         -1.93260        1.77242        5.52444
C         -0.22683        1.05698        4.45791
H          0.35445        0.88047        5.34797
C          0.30875        0.77261        3.21499
H          1.30343        0.36730        3.12577
Pd        -1.17007        1.59277       -1.07036
Cl        -2.74512        2.39886       -2.44898
Cl         0.37671        1.28008       -2.66588
C         -5.04262        2.92483        0.24427
C         -4.01802        0.57623        0.34717
H         -3.61695        5.42078        0.11562
H         -2.02299        4.71750        0.42297
H         -2.92343        4.26938       -1.02120
H         -5.07060        3.11916       -0.83687
H         -5.84346        3.54347        0.67739
H         -3.89512        0.25688       -0.69654
C         -5.30225        1.41315        0.50504
C         -3.92173       -0.60680        1.28588
H         -3.74609        3.60063        1.85734
H         -5.68715        1.27988        1.52541
H         -6.09188        1.03077       -0.15943
H         -3.97442       -0.28124        2.32637
H         -4.73383       -1.31793        1.11782
H         -2.97711       -1.13780        1.15669
C         -1.39688       -3.67931       -0.34804
C         -1.04855       -2.83573       -1.43340
C         -0.54456       -1.57986       -1.14780
C         -0.34060       -1.17308        0.14381
C         -0.56847       -2.02542        1.19168
C         -1.05254       -3.30504        0.97672
O         -2.13103       -4.87184       -0.58395
C         -1.27119       -3.23120       -2.90060
H         -0.32220       -0.88204       -1.93581
H         -0.38595       -1.66761        2.18988
C         -1.23338       -4.24196        2.18056
C          4.74323        0.62992        0.13260
C          4.11491       -0.34959        0.94362
C          2.73081       -0.36648        0.99628
C          1.98613        0.59366        0.36180
C          2.59287        1.60725       -0.33170
C          3.97200        1.67144       -0.44374
O          6.13563        0.54582       -0.13490
C          4.90209       -1.40178        1.74098
H          2.21109       -1.14822        1.52342
H          1.96645        2.33547       -0.81660
C          4.60382        2.82864       -1.23293
C         -2.67622       -2.78534       -3.33433
C         -0.23250       -2.54222       -3.81519
C         -1.10900       -4.74890       -3.09816
C         -0.15082       -3.96374        3.24861
C         -2.61610       -4.00436        2.80654
C         -1.08383       -5.71720        1.76676
C         -3.54169       -4.70032       -0.52349
H         -2.86107       -3.03685       -4.37828
H         -3.44496       -3.26352       -2.73196
H         -2.78977       -1.70724       -3.22144
H         -0.30370       -2.92021       -4.83475
H         -0.38787       -1.46545       -3.86323
H          0.78062       -2.72708       -3.45929
H         -0.12963       -5.07811       -2.75261
H         -1.86188       -5.30378       -2.54396
H         -1.20707       -5.01993       -4.14907
H          0.84548       -4.00338        2.80885
H         -0.28151       -2.98740        3.71278
H         -0.19459       -4.70518        4.04606
H         -2.77377       -4.65775        3.66421
H         -2.71372       -2.97347        3.14615
H         -3.41134       -4.19303        2.08901
H         -1.14499       -6.37551        2.63300
H         -1.86420       -6.01594        1.07155
H         -0.12285       -5.88367        1.28117
H         -3.95412       -5.32614        0.26768
H         -3.79033       -3.65653       -0.32752
H         -3.98769       -5.00811       -1.46916
C          6.46086       -0.25508       -1.26436
C          4.13848       -1.79077        3.02802
C          5.08523       -2.66102        0.88053
C          6.27168       -0.85531        2.18354
C          4.73071        2.42219       -2.70917
C          3.72289        4.09576       -1.14736
C          5.98402        3.20247       -0.66286
H          3.88183       -0.90509        3.60869
H          3.22071       -2.33308        2.80587
H          4.74742       -2.43872        3.65807
H          5.63609       -2.43992       -0.03052
H          5.63122       -3.43042        1.42586
H          4.11886       -3.07355        0.59132
H          6.80043       -1.57846        2.80399
H          6.90505       -0.63024        1.32935
H          6.15064        0.06152        2.75954
H          3.75333        2.18056       -3.12637
H          5.16112        3.22927       -3.30137
H          5.36437        1.54619       -2.82396
H          4.22939        4.94968       -1.59665
H          2.78106        3.96835       -1.67897
H          3.50214        4.34549       -0.10993
H          6.40279        4.06340       -1.18334
H          6.69063        2.38250       -0.76353
H          5.90780        3.44972        0.39543
H          5.55390       -0.64709       -1.72639
H          7.00928        0.34401       -1.99112
H          7.09892       -1.08297       -0.95580
