105
-153.06914853
Cl         0.48906        2.17197        2.99125
Pd        -0.34661        1.38785        1.05249
P         -1.24053        0.75914       -0.99575
N         -0.17210       -0.32404       -1.87023
C          0.35249       -1.58854       -1.63779
C          0.26725       -2.27676       -0.40130
C          0.94890       -3.50144       -0.24213
C          0.86122       -4.21277        1.08710
C          1.91938       -5.30918        1.28426
C          2.02544       -6.19576        0.04017
C          2.40802       -5.36314       -1.19309
C          1.66264       -4.05643       -1.30652
C          1.69845       -3.38412       -2.52037
C          1.06325       -2.18080       -2.68176
H          1.12985       -1.66087       -3.62171
H          2.25468       -3.81205       -3.33723
H          3.48321       -5.14905       -1.17477
H          2.74615       -7.00982        0.20224
H          2.89306       -4.84309        1.48091
H          0.94335       -3.47065        1.89049
C         -0.66535       -1.85738        0.67350
C         -0.16881       -1.27900        1.87731
C         -1.04995       -1.12552        2.95373
C         -2.36459       -1.50002        2.84835
C         -2.85920       -2.07782        1.68523
C         -4.29570       -2.52730        1.65190
C         -4.51977       -3.70471        0.69271
C         -3.95183       -3.37850       -0.69180
C         -2.45184       -3.03889       -0.62969
C         -2.00723       -2.27292        0.59687
H         -1.86961       -3.96669       -0.67954
H         -4.50044       -2.52702       -1.10803
H         -5.58631       -3.96363        0.62953
H         -4.92334       -1.67944        1.35458
H         -3.03081       -1.35356        3.68149
H         -0.68744       -0.67121        3.85903
N          1.14827       -0.81377        2.00114
P          1.74685        0.24849        0.71993
C          2.93915       -0.63926       -0.28395
C          3.29128       -0.19452       -1.53554
C          4.24743       -0.88340       -2.25945
C          4.86903       -2.00472       -1.72482
C          4.51185       -2.42480       -0.45079
C          3.55206       -1.73709        0.26928
H          3.26429       -2.05584        1.25845
H          4.98320       -3.29603       -0.02924
C          5.86425       -2.77248       -2.52267
H          4.51398       -0.55562       -3.24969
H          2.81537        0.68226       -1.94259
C          2.69675        1.62796        1.36510
C          3.52308        1.45262        2.44830
C          4.26308        2.52035        2.92342
C          4.17748        3.76606        2.31555
C          3.35221        3.91484        1.20879
C          2.61359        2.84668        0.73365
H          1.96802        2.95980       -0.12322
H          3.28963        4.87317        0.72219
C          4.98792        4.91086        2.81549
H          4.91241        2.39186        3.77250
H          3.58926        0.48319        2.91551
H          1.36381       -0.34386        2.87157
H         -0.17258       -0.00282       -2.83039
C         -1.04575        2.37093       -1.76062
C          0.18763        2.71748       -2.25900
C          0.38377        3.97625       -2.79730
C         -0.65464        4.89757       -2.83029
C         -1.89408        4.52627       -2.32561
C         -2.08674        3.26796       -1.78520
H         -3.04102        2.98461       -1.37145
H         -2.70662        5.23205       -2.35258
C         -0.45398        6.24662       -3.42819
H          1.34651        4.25087       -3.19339
H          0.99235        2.00180       -2.22053
C         -2.93236        0.25543       -1.33157
C         -3.21249       -0.27798       -2.56783
C         -4.51401       -0.61350       -2.89756
C         -5.54707       -0.40586       -1.99344
C         -5.24559        0.13372       -0.75080
C         -3.94493        0.46871       -0.42746
H         -3.71610        0.92113        0.52150
H         -6.03814        0.29608       -0.04039
C         -6.94328       -0.79896       -2.32956
H         -4.73402       -1.04169       -3.86051
H         -2.41111       -0.42891       -3.27307
Cl        -2.37082        2.22800        1.54810
H          2.24219       -5.94471       -2.10903
H          1.69642       -5.91273        2.17545
H          1.06070       -6.68769       -0.13719
H         -0.14196       -4.64341        1.18761
H         -4.13308       -4.20810       -1.38951
H         -2.15802       -2.46949       -1.51957
H         -4.61858       -2.79212        2.66679
H         -4.02021       -4.59739        1.08973
H          5.37160       -3.54622       -3.11324
H          6.40752       -2.12030       -3.20789
H          6.59703       -3.25785       -1.87652
H          5.95924        4.94374        2.32011
H          4.48315        5.86020        2.63115
H          5.15994        4.83168        3.88980
H         -0.71818        6.24452       -4.48657
H         -1.07178        6.99388       -2.92813
H          0.58560        6.56571       -3.34117
H         -7.66441       -0.13326       -1.85327
H         -7.11628       -0.75835       -3.40586
H         -7.15080       -1.81585       -1.99334
