58
-89.86828433
P          1.53915        0.22346        0.80195
C          1.61935        1.96245        0.35927
C          1.62750        2.94693        1.32133
C          1.68621        4.27574        0.94145
C          1.74194        4.60878       -0.39778
C          1.74656        3.61740       -1.35879
C          1.68856        2.29078       -0.97498
H          1.70335        1.49932       -1.70701
H          1.58920        2.67686        2.36396
C          3.14972       -0.55065        0.63376
C          3.25668       -1.91469        0.48667
C          4.50538       -2.49561        0.35656
C          5.63802       -1.70581        0.37644
C          5.52593       -0.33752        0.52499
C          4.27575        0.24064        0.65416
H          4.17082        1.30808        0.76607
H          2.36506       -2.52003        0.45875
C          0.94148       -0.03408        2.52724
C          0.19690       -1.35673        2.67854
C         -1.29565       -1.27365        2.38878
P         -1.73371       -0.58796        0.73200
C         -3.30478       -1.27417        0.19931
C         -4.35583       -0.43766       -0.10141
C         -5.56382       -0.97040       -0.51394
C         -5.70971       -2.33920       -0.62360
C         -4.65232       -3.17479       -0.32241
C         -3.44572       -2.63862        0.09124
H         -2.60655       -3.27840        0.31488
H         -4.22687        0.62889       -0.01439
C         -1.79086        1.21379        0.70226
C         -1.78117        1.83347       -0.52713
C         -1.79227        3.21395       -0.60732
C         -1.81717        3.96754        0.54848
C         -1.83833        3.34364        1.77974
C         -1.82844        1.96306        1.85584
H         -1.86184        1.47404        2.81474
H         -1.75989        1.23102       -1.42192
Pd         0.09145       -0.79936       -0.68930
Cl         1.77115       -0.77853       -2.18413
Cl        -1.30137       -1.90533       -2.05893
H         -1.75596       -2.26291        2.44745
H         -1.80330       -0.65900        3.13344
H          0.65925       -2.10151        2.01656
H          0.34208       -1.75236        3.69596
H          1.83295        0.00611        3.15857
H          0.30983        0.80473        2.81914
H          1.68529        5.05012        1.69087
H          1.79541        3.87490       -2.40396
H          4.59256       -3.56281        0.23510
H          6.40918        0.27970        0.53745
H         -6.38777       -0.31774       -0.75149
H         -4.76375       -4.24269       -0.41412
H         -1.77371        3.69833       -1.56969
H         -1.86091        3.93230        2.68214
H          1.78436        5.64442       -0.69323
H          6.61098       -2.15783        0.27273
H         -6.64933       -2.75596       -0.94789
H         -1.81851        5.04372        0.48955
