111
-148.55109056
P         -2.60932        1.95939       -0.55169
P          0.07420        0.54564        0.35409
C         -1.89315        2.34139        1.06901
C         -0.71073        1.74365        1.44694
C         -3.20810        3.49691       -1.39251
C         -2.46503        3.74359       -2.68713
C         -2.51875        3.22868        1.92123
H         -3.43904        3.70012        1.61732
C         -1.96046        3.50656        3.15705
H         -2.44928        4.19775        3.82408
C         -0.77851        2.89954        3.53637
H         -0.34506        3.11416        4.49929
C         -0.15181        2.01380        2.67819
H          0.76853        1.52711        2.96013
Pd        -1.05106        0.65735       -1.66511
Cl        -2.48627        0.58777       -3.38752
Cl         0.60106       -0.51336       -2.63165
C         -4.72111        3.24297       -1.56969
C         -4.17944        0.98337       -0.49065
H         -1.38711        3.80978       -2.52085
H         -2.64011        2.93056       -3.39278
H         -2.79129        4.66957       -3.16656
H         -5.05406        3.67383       -2.52496
H         -5.28458        3.78077       -0.79320
H         -3.93766       -0.03055       -0.83809
C         -5.07214        1.72916       -1.50330
C         -4.75138        0.94759        0.91005
H         -3.02695        4.32258       -0.69092
H         -6.13018        1.58617       -1.23851
H         -4.95150        1.28440       -2.50221
H         -4.03396        0.53489        1.62171
H         -5.00574        1.95367        1.24767
H         -5.66217        0.34581        0.95657
C         -1.24808       -3.69559        1.35020
C         -0.12964       -3.48594        0.50364
C          0.24168       -2.18222        0.22088
C         -0.39605       -1.12141        0.80705
C         -1.41505       -1.31995        1.70130
C         -1.84055       -2.59765        2.02556
O         -1.80209       -4.99578        1.49236
C          0.65235       -4.63606       -0.14937
H          1.01724       -1.97296       -0.49535
H         -1.88170       -0.45579        2.13965
C         -2.95190       -2.77835        3.07154
C          4.59063        1.10593        0.14137
C          3.76155        1.63427       -0.88358
C          2.39052        1.47685       -0.76318
C          1.84911        0.74721        0.26262
C          2.65352        0.12352        1.18115
C          4.03234        0.25132        1.12858
O          5.95244        1.49490        0.22349
C          4.29724        2.33672       -2.14284
H          1.72518        1.91970       -1.48527
H          2.18886       -0.47117        1.94958
C          4.87073       -0.55732        2.13325
C          0.63364       -5.89872        0.73114
C          0.04759       -4.93784       -1.52898
C          2.13604       -4.24532       -0.33506
C         -2.94483       -1.61234        4.08630
C         -4.31715       -2.80660        2.36789
C         -2.74459       -4.07468        3.87586
C         -2.79181       -5.31293        0.52132
H          1.24339       -6.68954        0.29489
H          1.02345       -5.67887        1.72449
H         -0.37402       -6.28835        0.84842
H          0.09394       -4.05745       -2.16968
H          0.58680       -5.74486       -2.02422
H         -0.99642       -5.23071       -1.44669
H          2.25775       -3.44691       -1.06528
H          2.56669       -3.91623        0.60962
H          2.71866       -5.09496       -0.69028
H         -3.24195       -0.67235        3.62423
H         -3.64491       -1.80333        4.89934
H         -1.95424       -1.48299        4.52154
H         -4.38842       -3.64350        1.67801
H         -5.12734       -2.89821        3.09083
H         -4.47584       -1.89327        1.79618
H         -3.49654       -4.17496        4.65815
H         -2.81479       -4.95237        3.23792
H         -1.76205       -4.08133        4.34655
H         -2.45283       -6.14747       -0.09192
H         -3.71131       -5.61299        1.02380
H         -2.98888       -4.45040       -0.11665
C          6.13988        2.67463        0.98711
C          5.80752        2.11687       -2.33758
C          3.59250        1.75538       -3.38915
C          4.00500        3.84332       -2.05408
C          6.36105       -0.60474        1.75314
C          4.71948        0.05747        3.53426
C          4.36895       -2.01740        2.16065
H          6.38002        2.58707       -1.54148
H          6.04413        1.05343       -2.33577
H          6.14776        2.53989       -3.28248
H          2.52569        1.97193       -3.39023
H          4.00987        2.17539       -4.30384
H          3.71409        0.67334       -3.42916
H          4.35346        4.36063       -2.94762
H          2.93571        4.02771       -1.95522
H          4.50018        4.28962       -1.19371
H          6.81460        0.38178        1.81223
H          6.91634       -1.26294        2.42098
H          6.48620       -0.96931        0.73415
H          5.07575        1.08594        3.55136
H          3.67599        0.06174        3.84769
H          5.28909       -0.50790        4.27139
H          4.98350       -2.62736        2.82226
H          4.41443       -2.45396        1.16354
H          3.34196       -2.08803        2.51487
H          5.78238        2.52148        2.00433
H          7.20125        2.92254        1.01117
H          5.58724        3.50003        0.54115
