59
-75.79909984
Cl         1.57978        0.96045        2.26643
P          1.64467        0.02954       -0.80395
P         -1.53662       -0.13298       -0.85425
C          0.69672        0.59502       -2.28299
H          0.44719        1.65001       -2.14485
H          1.34281        0.51991       -3.16290
C         -0.54618       -0.24170       -2.41615
H         -0.28626       -1.28869       -2.58674
H         -1.17336        0.07578       -3.25512
C          2.28052       -1.68164       -1.13092
H          1.92663       -1.92393       -2.14150
C          3.25796        0.90969       -0.59755
H          3.45744        0.92880        0.48094
C         -2.38074       -1.69516       -0.31600
H         -1.87136       -2.03804        0.59350
C         -3.00554        0.97223       -1.08300
H         -2.97131        1.33667       -2.11743
C          3.81493       -1.52257       -1.14215
H          4.23077       -1.91836       -0.20814
H          4.25662       -2.14281       -1.93648
C          4.24442       -0.03797       -1.30241
H          4.28199        0.22302       -2.36937
H          5.26558        0.12126       -0.92294
C         -3.80902       -1.20786        0.00024
H         -4.52931       -2.02528       -0.14309
H         -3.87975       -0.93481        1.06373
C         -4.19916        0.01910       -0.86831
H         -5.03223        0.56924       -0.40692
H         -4.57916       -0.33009       -1.83978
C          1.73159       -2.69115       -0.12297
H          2.01309       -3.70570       -0.43806
H          0.63416       -2.66794       -0.17173
C          3.23940        2.33031       -1.14786
H          4.26808        2.71547       -1.18283
H          2.90650        2.30320       -2.19341
C         -2.30870       -2.77872       -1.38693
H         -2.82284       -2.41884       -2.28786
H         -1.26204       -2.91991       -1.68644
C         -2.98654        2.15491       -0.12216
H         -3.95420        2.67391       -0.16807
H         -2.91323        1.77252        0.90388
C          2.17843       -2.46146        1.31582
H          2.01009       -1.43070        1.62737
H          3.24164       -2.66403        1.45130
H          1.64117       -3.10498        2.01641
C          2.36176        3.26659       -0.33224
H          1.33436        2.90564       -0.28778
H          2.33918        4.27692       -0.74682
H          2.71504        3.34004        0.69803
C         -2.88747       -4.11383       -0.93876
H         -2.38327       -4.47894       -0.04192
H         -2.78436       -4.88239       -1.70832
H         -3.94923       -4.03581       -0.70098
C         -1.86042        3.13626       -0.40432
H         -1.94009        3.55204       -1.41054
H         -1.85724        3.97160        0.29952
H         -0.88853        2.64871       -0.33594
Cl        -1.62878        0.30475        2.34508
Pd         0.01222        0.26673        0.81812
