87
-129.18454260
P         -1.56027       -0.30950       -0.38579
P          1.65619        0.23405        0.17135
C         -1.13647        0.92384       -1.62095
C          1.52649       -0.84287       -1.27732
C         -0.06086        0.69440       -2.46943
C          0.26693        1.67266       -3.42971
C         -0.50049        2.82312       -3.50924
C         -1.56780        3.02795       -2.66033
C         -1.88293        2.07270       -1.71442
C          2.21660       -2.02934       -1.19516
C          2.10935       -2.97606       -2.19467
C          1.28839       -2.73538       -3.27400
C          0.57422       -1.55436       -3.37661
C          0.70550       -0.57620       -2.37167
Cl         0.98944       -0.01702        3.34552
Cl        -1.68649       -1.71770        2.52795
H         -2.15134        3.93117       -2.73144
H         -2.71853        2.22146       -1.05108
H          2.83973       -2.22172       -0.33735
H          2.65344       -3.90355       -2.12277
H         -0.24770        3.56825       -4.24437
H          1.18624       -3.47653       -4.04853
C         -2.36518       -4.29639       -2.40482
C         -1.48050       -4.24493       -1.33624
C         -1.26854       -3.02315       -0.70958
C         -1.90318       -1.88921       -1.15984
C         -2.77079       -1.94534       -2.22513
C         -3.00765       -3.15682       -2.84795
H         -2.54667       -5.24049       -2.88953
C         -0.79432       -5.47104       -0.84663
H         -0.59719       -2.96150        0.13022
H         -3.24884       -1.04132       -2.56879
H         -3.68795       -3.20941       -3.68208
C         -5.15811        1.11318        2.02405
C         -5.24891       -0.04516        1.27766
C         -4.16260       -0.47809        0.54114
C         -2.99743        0.25175        0.55135
C         -2.90402        1.40372        1.29776
C         -3.98215        1.85016        2.05106
H         -6.00377        1.45278        2.59742
H         -6.16419       -0.61406        1.27217
H         -4.21569       -1.38685       -0.03550
H         -1.98642        1.96638        1.29551
C         -3.87587        3.10601        2.84251
C          5.56757       -0.54738        2.36935
C          4.51976       -1.43591        2.50671
C          3.32810       -1.20469        1.84616
C          3.19066       -0.08606        1.05737
C          4.23401        0.80044        0.91923
C          5.44293        0.57956        1.56907
H          6.49418       -0.72083        2.88963
H          4.62711       -2.30544        3.13427
H          2.49662       -1.88209        1.96056
H          4.10913        1.67647        0.30588
C          6.56161        1.55329        1.44424
C          1.06514        4.68516       -0.52763
C          1.91969        3.97584       -1.34899
C          2.11706        2.62412       -1.13708
C          1.45574        1.99589       -0.10857
C          0.63298        2.70738        0.73435
C          0.41800        4.06489        0.53227
H          0.89599        5.73395       -0.70270
H          2.42163        4.47163       -2.16360
H          2.76618        2.05063       -1.77944
H          0.17888        2.21135        1.57502
C         -0.51954        4.82084        1.40617
Pd        -0.14653       -0.47760        1.47041
C          1.42137        1.50048       -4.35458
C         -0.32601       -1.35437       -4.54660
H          1.07904        1.28735       -5.36799
H          2.02919        2.40575       -4.39002
H          2.06915        0.68216       -4.03826
H          0.24730       -1.11156       -5.44203
H         -0.90163       -2.25809       -4.75176
H         -1.03783       -0.54718       -4.37102
H          0.20051       -5.23625       -0.46492
H         -1.36286       -5.93700       -0.04068
H         -0.67746       -6.20414       -1.64600
H         -2.90561        3.17368        3.33681
H         -3.98905        3.98019        2.19977
H         -4.64456        3.15399        3.61499
H          6.50654        2.09787        0.50049
H          6.53206        2.28221        2.25529
H          7.52813        1.04849        1.47936
H         -0.21638        5.86453        1.49976
H         -1.53088        4.79842        0.99757
H         -0.55208        4.39386        2.40958
