111
-148.54713017
P         -1.39624        2.61237        1.25450
P         -0.31274       -0.26828        0.54703
C         -0.86283        1.50017        2.58953
C         -0.46671        0.21536        2.27990
C         -0.24415        4.04127        1.05314
C          0.35392        4.04870       -0.33768
C         -0.80165        1.93737        3.89757
H         -1.05166        2.95843        4.13038
C         -0.37954        1.07684        4.89598
H         -0.33701        1.41880        5.91725
C         -0.00154       -0.21470        4.58450
H          0.33549       -0.88211        5.36051
C         -0.03158       -0.64203        3.26947
H          0.30637       -1.63121        3.00300
Pd        -1.62161        1.25356       -0.60553
Cl        -3.13066        2.68157       -1.44238
Cl        -1.58535       -0.18575       -2.33432
C         -1.14005        5.26022        1.36040
C         -3.00046        3.50319        1.53088
H         -0.43202        4.11298       -1.09304
H          1.02439        4.89927       -0.48181
H          0.92331        3.13692       -0.53195
H         -0.82147        6.11323        0.74363
H         -0.99298        5.57883        2.40293
H         -3.71899        3.06121        0.82756
C         -2.64632        4.94950        1.12668
C         -3.52523        3.37691        2.94531
H          0.54084        3.92367        1.81194
H         -3.27991        5.65416        1.68515
H         -2.88872        5.10862        0.06545
H         -3.60083        2.33082        3.25006
H         -2.86794        3.88705        3.64993
H         -4.51467        3.82915        3.04507
C         -0.94761       -4.71816       -0.21843
C         -1.67919       -4.06834        0.80790
C         -1.44845       -2.71983        1.02770
C         -0.56709       -2.01578        0.24813
C          0.06655       -2.61839       -0.80679
C         -0.14087       -3.95546       -1.10066
O         -0.99945       -6.13242       -0.33957
C         -2.68603       -4.81706        1.69508
H         -1.95290       -2.19726        1.82190
H          0.72851       -2.02414       -1.41078
C          0.50140       -4.54565       -2.36618
C          3.64838        1.43412       -0.94965
C          3.36211        1.40883        0.43908
C          2.17532        0.82896        0.85382
C          1.26506        0.34965       -0.05202
C          1.48953        0.47615       -1.39791
C          2.65582        1.04022       -1.88236
O          4.93117        1.83896       -1.40611
C          4.31565        1.99686        1.49132
H          1.93853        0.75611        1.90040
H          0.70903        0.16621       -2.06910
C          2.82488        1.22837       -3.39821
C         -3.40889       -5.91852        0.89842
C         -1.94832       -5.42990        2.89506
C         -3.77327       -3.85568        2.22568
C          1.91779       -5.04030       -2.03754
C         -0.34672       -5.69757       -2.93528
C          0.59587       -3.47029       -3.47351
C          0.03391       -6.81234        0.36180
H         -4.16951       -6.40738        1.50662
H         -3.89548       -5.49887        0.01860
H         -2.71440       -6.68466        0.56219
H         -1.18947       -6.13780        2.57090
H         -1.45170       -4.65502        3.47869
H         -2.64049       -5.95634        3.55173
H         -4.23988       -3.30825        1.40713
H         -4.55510       -4.40669        2.74796
H         -3.36356       -3.13571        2.93269
H          2.53632       -4.22136       -1.67088
H          1.89851       -5.80964       -1.26914
H          2.40002       -5.45803       -2.92096
H          0.07262       -6.06878       -3.87005
H         -0.39763       -6.53378       -2.24271
H         -1.36529       -5.36310       -3.12934
H         -0.37329       -3.00092       -3.64069
H          1.31249       -2.69141       -3.21921
H          0.92274       -3.91051       -4.41522
H          0.65702       -7.36217       -0.34315
H          0.64993       -6.10205        0.91470
H         -0.40766       -7.52790        1.05534
C          5.87027        0.77768       -1.52138
C          3.53169        2.48306        2.73206
C          5.31184        0.91589        1.93647
C          5.06842        3.21763        0.93184
C          3.63197        2.50251       -3.70627
C          3.52845       -0.00184       -3.99040
C          1.45030        1.38714       -4.08811
H          3.08995        1.65366        3.28246
H          4.18956        3.00988        3.42287
H          2.73497        3.16738        2.44330
H          5.99816        1.30342        2.68899
H          4.78723        0.06237        2.36530
H          5.90192        0.55376        1.09824
H          5.69607        3.67532        1.69606
H          5.71195        2.94025        0.10065
H          4.36610        3.96996        0.57414
H          3.15983        3.37409       -3.25397
H          4.64535        2.43306       -3.31838
H          3.70093        2.67282       -4.78035
H          2.95148       -0.90555       -3.79731
H          3.64805        0.09830       -5.06887
H          4.51481       -0.14025       -3.55487
H          0.87446        0.46332       -4.05684
H          1.57262        1.65121       -5.13818
H          0.86471        2.17325       -3.61200
H          5.40764       -0.17186       -1.24923
H          6.23629        0.72455       -2.54656
H          6.72076        0.96922       -0.86744
