75
-122.81261873
P          1.81820       -0.56317        0.04092
C          3.11060       -1.35462       -0.92968
C          4.41924       -1.25562       -0.51490
C          5.41651       -1.89975       -1.22464
C          5.09339       -2.65113       -2.33698
C          3.77646       -2.76774       -2.73479
C          2.78178       -2.12313       -2.02243
H          1.74840       -2.21188       -2.31784
H          3.52261       -3.35922       -3.59906
H          5.86957       -3.15220       -2.89209
H          6.44276       -1.81896       -0.90596
H          4.65345       -0.69351        0.37532
C          1.71442       -1.51808        1.56597
C          1.52639       -0.90649        2.78431
C          1.53843       -1.65760        3.94452
C          1.73715       -3.02209        3.87786
C          1.91959       -3.63536        2.65449
C          1.90989       -2.87896        1.49628
H          2.06823       -3.34264        0.53551
H          2.07144       -4.70082        2.60082
H          1.74257       -3.61009        4.78108
H          1.38613       -1.17870        4.89775
H          1.35682        0.15598        2.82250
C          2.19753        1.16078        0.41276
C          3.32492        1.83005       -0.00380
C          3.47440        3.18667        0.24897
C          2.45934        3.85937        0.92885
C          1.31404        3.20779        1.32899
C          1.17848        1.83468        1.07051
O          0.00840        1.14135        1.42404
C         -1.19911        1.80182        1.14499
C         -1.36554        3.16399        1.44132
C         -2.56459        3.77691        1.15249
C         -3.60875        3.07647        0.54933
C         -3.41357        1.74243        0.21879
C         -2.22852        1.11306        0.52060
P         -1.81686       -0.55859       -0.01134
C         -1.65064       -1.65353        1.40027
C         -1.78436       -1.16909        2.68103
C         -1.73860       -2.04112        3.75309
C         -1.56094       -3.39272        3.53257
C         -1.42575       -3.87366        2.24513
C         -1.47348       -2.99908        1.17425
H         -1.38533       -3.35937        0.16116
H         -1.28368       -4.92793        2.07357
H         -1.52100       -4.07300        4.36754
H         -1.83778       -1.66502        4.75799
H         -1.92002       -0.11114        2.83570
C         -3.12832       -1.23582       -1.04064
C         -2.89556       -1.61400       -2.34290
C         -3.92336       -2.14806       -3.09791
C         -5.17652       -2.30740       -2.54062
C         -5.40319       -1.93818       -1.22972
C         -4.37281       -1.40392       -0.47700
H         -4.52985       -1.12419        0.55321
H         -6.37935       -2.06763       -0.79202
H         -5.97833       -2.72264       -3.12914
H         -3.74572       -2.43692       -4.12080
H         -1.91428       -1.48343       -2.76901
Pd         0.01365        0.08533       -1.36762
Cl        -1.55624        1.16310       -2.57164
Cl         1.59574        0.45892       -2.91950
H         -4.18288        1.20387       -0.30575
C         -4.87924        3.76368        0.19638
H         -4.82878        4.17278       -0.81342
H         -5.08702        4.58502        0.88336
H         -5.72341        3.07415        0.23864
H         -2.68626        4.82090        1.38138
S         -0.00817        4.05533        2.15691
H          2.56105        4.91040        1.13380
C          4.70457        3.90220       -0.18343
H          4.08307        1.30552       -0.55700
H          5.06081        3.52304       -1.14219
H          4.51975        4.97096       -0.29867
H          5.50386        3.77517        0.54775
