105
-153.06582795
Cl        -0.17262        1.70560        3.17235
Pd        -0.65605        1.23505        1.02210
P         -1.28377        0.58148       -1.13783
N         -1.14930       -1.10346       -1.59552
C          0.01527       -1.88534       -1.48575
C          0.31351       -2.55324       -0.27045
C          1.39719       -3.44657       -0.20937
C          1.68810       -4.14750        1.09406
C          3.06625       -4.82563        1.14837
C          3.34706       -5.60244       -0.14166
C          3.30895       -4.67074       -1.36315
C          2.15575       -3.69831       -1.35548
C          1.84414       -3.03759       -2.53879
C          0.80168       -2.14921       -2.60693
H          0.56067       -1.66457       -3.53563
H          2.43997       -3.23176       -3.41453
H          4.24448       -4.10302       -1.42385
H          4.31183       -6.12553       -0.07863
H          3.84206       -4.06236        1.28701
H          1.59843       -3.42168        1.91136
C         -0.59970       -2.38306        0.88467
C         -0.17182       -1.66260        2.03057
C         -1.06836       -1.51283        3.09268
C         -2.34538       -2.00589        3.01657
C         -2.78076       -2.71737        1.90542
C         -4.21243       -3.20281        1.88700
C         -4.55880       -4.17453        0.74389
C         -3.81701       -3.81055       -0.54666
C         -2.30166       -3.82248       -0.30391
C         -1.89383       -2.93913        0.84966
H         -1.97283       -4.84543       -0.08497
H         -4.12525       -2.80998       -0.87468
H         -5.64397       -4.20087        0.57138
H         -4.86820       -2.32566        1.83130
H         -3.03219       -1.84066        3.82947
H         -0.75845       -0.94979        3.95548
N          1.08537       -1.04342        2.10314
P          1.46879        0.20580        0.91339
C          2.61732       -0.29734       -0.35965
C          3.68144       -1.09772       -0.02245
C          4.63472       -1.40533       -0.97678
C          4.53046       -0.90111       -2.26675
C          3.45419       -0.08116       -2.57981
C          2.50627        0.22906       -1.62253
H          1.67703        0.87375       -1.85600
H          3.36006        0.31070       -3.57807
C          5.52938       -1.27020       -3.30701
H          5.46719       -2.03917       -0.72340
H          3.76188       -1.47195        0.98591
C          2.30465        1.60003        1.69040
C          3.03733        1.43044        2.84065
C          3.68419        2.51305        3.40834
C          3.61337        3.76817        2.81901
C          2.87618        3.91659        1.65218
C          2.23080        2.83285        1.08572
H          1.67158        2.94238        0.17016
H          2.80879        4.88679        1.19035
C          4.28225        4.94072        3.44769
H          4.24817        2.38918        4.31703
H          3.11066        0.45342        3.28889
H          1.26334       -0.58077        2.98483
H         -1.86575       -1.36542       -0.92358
C         -0.46729        1.70450       -2.26348
C         -0.14341        2.97368       -1.84522
C          0.54142        3.82132       -2.69595
C          0.90034        3.40319       -3.97068
C          0.53228        2.13010       -4.38582
C         -0.15085        1.28298       -3.53213
H         -0.43745        0.29240       -3.84448
H          0.78738        1.80487       -5.37990
C          1.62479        4.32053       -4.89302
H          0.79926        4.81608       -2.37474
H         -0.44761        3.30179       -0.86382
C         -3.05804        0.87240       -1.14364
C         -3.61458        1.79295       -1.99890
C         -4.98235        1.99641       -1.99200
C         -5.79891        1.28271       -1.12470
C         -5.21806        0.35093       -0.27538
C         -3.85013        0.14911       -0.28298
H         -3.39704       -0.55769        0.39428
H         -5.84337       -0.21217        0.39615
C         -7.27416        1.48516       -1.12945
H         -5.42458        2.71417       -2.66158
H         -2.97753        2.34919       -2.66728
Cl        -2.52130        2.48056        1.17232
H          3.26643       -5.26052       -2.28782
H          3.14294       -5.48503        2.02441
H          2.59265       -6.39032       -0.26101
H          0.90104       -4.88954        1.27308
H         -4.09178       -4.48884       -1.36673
H         -1.76425       -3.53898       -1.21594
H         -4.43480       -3.66802        2.85571
H         -4.28595       -5.19576        1.03852
H          5.22382       -2.17648       -3.83182
H          5.64126       -0.47493       -4.04530
H          6.50991       -1.45177       -2.86470
H          5.17539        4.63779        3.99594
H          4.58713        5.67007        2.69593
H          3.61042        5.43936        4.14759
H          2.26545        3.76393       -5.57852
H          0.92241        4.90563       -5.48817
H          2.25811        5.01549       -4.33980
H         -7.76021        0.77838       -1.80337
H         -7.69307        1.34281       -0.13229
H         -7.53262        2.49366       -1.45520
