75
-122.81161421
P          1.92529       -0.51209       -0.18220
C          3.38105       -1.18909       -1.01082
C          4.35884       -1.74911       -0.21884
C          5.49500       -2.28653       -0.79681
C          5.64703       -2.25870       -2.16853
C          4.66929       -1.69071       -2.96011
C          3.53845       -1.15292       -2.37658
H          2.78618       -0.68043       -2.98255
H          4.79007       -1.65972       -4.03055
H          6.53106       -2.67729       -2.62129
H          6.25827       -2.72702       -0.17661
H          4.22660       -1.76718        0.85145
C          1.63479       -1.58419        1.22933
C          1.91387       -1.14780        2.50411
C          1.80303       -2.02323        3.56862
C          1.41831       -3.33071        3.34602
C          1.14050       -3.76381        2.06454
C          1.25363       -2.88651        1.00088
H          1.06197       -3.21393       -0.00911
H          0.83724       -4.78327        1.89191
H          1.32746       -4.01295        4.17538
H          2.01532       -1.68436        4.56921
H          2.22063       -0.12615        2.65920
C          2.26806        1.17240        0.33996
C          3.42324        1.83300       -0.00620
C          3.59364        3.17171        0.31903
C          2.55408        3.83952        0.96536
C          1.38657        3.19115        1.30331
C          1.24410        1.82572        1.00953
O          0.07344        1.12510        1.34398
C         -1.13797        1.78502        1.07944
C         -1.29661        3.15347        1.34946
C         -2.48708        3.77091        1.03636
C         -3.53718        3.06429        0.45169
C         -3.36268        1.71481        0.17920
C         -2.18544        1.08149        0.50244
P         -1.81800       -0.64202        0.11860
C         -1.76134       -1.57447        1.65932
C         -1.39598       -0.96037        2.83514
C         -1.44218       -1.66130        4.02557
C         -1.84816       -2.98079        4.03001
C         -2.20445       -3.59889        2.84786
C         -2.16316       -2.89112        1.66005
H         -2.45475       -3.35697        0.73232
H         -2.51837       -4.62971        2.84994
H         -1.88013       -3.53091        4.95625
H         -1.15270       -1.18039        4.94541
H         -1.05676        0.06126        2.81281
C         -3.12500       -1.37967       -0.87670
C         -4.41149       -1.37167       -0.38710
C         -5.43041       -1.95616       -1.11742
C         -5.15106       -2.55467       -2.32969
C         -3.85628       -2.57670       -2.80832
C         -2.83986       -1.99224       -2.07533
H         -1.82467       -2.00984       -2.43731
H         -3.63681       -3.04747       -3.75250
H         -5.94395       -3.00902       -2.90114
H         -6.43906       -1.94691       -0.73822
H         -4.61084       -0.92338        0.57371
Pd        -0.08141       -0.03322       -1.37780
Cl        -1.71308        0.82708       -2.68368
Cl         1.38886        0.92441       -2.80108
H         -4.14414        1.16709       -0.31607
C         -4.79818        3.75433        0.07077
H         -4.98814        4.61316        0.71576
H         -5.65348        3.08231        0.15267
H         -4.74705        4.11031       -0.95893
H         -2.59958        4.82153        1.23810
S          0.04663        4.04789        2.08688
H          2.65522        4.88578        1.19412
C          4.83030        3.89525       -0.07867
H          4.18887        1.31050       -0.55335
H          4.72977        4.30800       -1.08323
H          5.04211        4.71848        0.60481
H          5.69394        3.22896       -0.07313
