105
-153.07050953
Cl         3.20318        1.33732       -1.32150
Pd         0.98507        1.05243       -1.09763
P         -1.39086        0.94554       -0.83232
N         -1.30117       -0.43774       -1.92889
C         -0.37389       -1.44831       -1.64369
C         -0.28715       -2.06588       -0.36658
C          0.64734       -3.09514       -0.15050
C          0.61078       -3.85632        1.15147
C          1.19766       -5.27011        1.03768
C          2.58526       -5.22374        0.39185
C          2.53818       -4.58138       -1.00596
C          1.53347       -3.46392       -1.16404
C          1.45744       -2.82413       -2.39546
C          0.51992       -1.85394       -2.63910
H          0.47918       -1.37033       -3.59919
H          2.14175       -3.11491       -3.17447
H          3.52955       -4.19869       -1.27935
H          3.25722       -4.64689        1.03708
H          1.23842       -5.75911        2.02135
H          1.15617       -3.28645        1.91016
C         -1.33729       -1.83561        0.65501
C         -1.08436       -1.08513        1.82983
C         -2.01405       -1.13799        2.86806
C         -3.17041       -1.86449        2.75283
C         -3.45957       -2.57362        1.59482
C         -4.76109       -3.33342        1.52886
C         -4.82308       -4.36760        0.39422
C         -4.25872       -3.78558       -0.90505
C         -2.79741       -3.34813       -0.72067
C         -2.54318       -2.55868        0.54103
H         -2.14408       -4.22863       -0.71850
H         -4.86193       -2.91993       -1.20616
H         -5.85186       -4.72545        0.24616
H         -5.57914       -2.61227        1.41608
H         -3.88153       -1.87467        3.56152
H         -1.82275       -0.57066        3.76234
N          0.01043       -0.25017        1.99963
P          1.39799        0.19159        1.02027
C          2.70299       -1.01465        1.26060
C          3.61040       -1.29876        0.26828
C          4.64353       -2.18409        0.51010
C          4.77910       -2.78858        1.75217
C          3.86664       -2.47383        2.75006
C          2.83333       -1.58694        2.50387
H          2.12717       -1.33395        3.27876
H          3.97144       -2.92495        3.72191
C          5.90386       -3.72724        2.01878
H          5.35903       -2.40324       -0.26393
H          3.52787       -0.80043       -0.68238
C          1.99861        1.73336        1.71897
C          1.07827        2.71448        2.00115
C          1.50196        3.93317        2.49949
C          2.85260        4.17695        2.70997
C          3.76566        3.17012        2.42497
C          3.33944        1.95324        1.92560
H          4.04791        1.17745        1.68508
H          4.81442        3.34737        2.59168
C          3.31042        5.48020        3.26633
H          0.78457        4.70325        2.72642
H          0.03228        2.52069        1.82824
H          0.18166        0.10699        2.93182
H         -1.22606       -0.03541       -2.85447
C         -1.58623        2.48473       -1.74002
C         -2.34985        2.51345       -2.88162
C         -2.50660        3.70227       -3.57116
C         -1.89869        4.86640       -3.12021
C         -1.14954        4.81954       -1.95216
C         -0.99476        3.63085       -1.26291
H         -0.41032        3.59152       -0.35720
H         -0.68603        5.71979       -1.58637
C         -2.08143        6.15008       -3.85240
H         -3.10265        3.73216       -4.46721
H         -2.82320        1.60881       -3.22804
C         -2.87521        0.85175        0.16785
C         -3.94772        0.16267       -0.34426
C         -5.13257        0.10715        0.36715
C         -5.24452        0.74349        1.59590
C         -4.15833        1.46108        2.07999
C         -2.97614        1.51954        1.36463
H         -2.13372        2.07868        1.73622
H         -4.24391        1.97254        3.02348
C         -6.51748        0.68749        2.36597
H         -5.97514       -0.43453       -0.02725
H         -3.84673       -0.33472       -1.29590
Cl         0.70562        1.59546       -3.26592
H          2.30980       -5.35175       -1.75236
H          0.53195       -5.89116        0.42525
H          3.02404       -6.23029        0.34312
H         -0.42280       -3.90813        1.51512
H         -4.34987       -4.50847       -1.72804
H         -2.47834       -2.74837       -1.58180
H         -4.93439       -3.82179        2.49638
H         -4.24093       -5.25384        0.67684
H          6.78570       -3.18637        2.36459
H          5.63519       -4.45735        2.78356
H          6.17822       -4.27793        1.11784
H          2.63837        6.28952        2.97752
H          3.34658        5.44508        4.35601
H          4.30762        5.73401        2.90409
H         -1.21309        6.79912       -3.73095
H         -2.21764        5.97759       -4.92090
H         -2.95698        6.68576       -3.48309
H         -7.08293       -0.21463        2.12803
H         -6.32629        0.68335        3.44003
H         -7.14647        1.54916        2.13843
