75
-122.81205674
P          1.93425       -0.52078       -0.16466
C          3.38903       -1.19183       -0.99824
C          4.32337       -1.85399       -0.23316
C          5.45998       -2.37475       -0.82509
C          5.65754       -2.22569       -2.18316
C          4.72444       -1.55399       -2.94684
C          3.59237       -1.03523       -2.34915
H          2.87253       -0.48582       -2.92952
H          4.88046       -1.42874       -4.00578
H          6.54239       -2.63061       -2.64664
H          6.18900       -2.89556       -0.22629
H          4.15898       -1.96223        0.82708
C          1.64778       -1.57813        1.25757
C          1.92302       -1.12533        2.52743
C          1.81535       -1.98870        3.60211
C          1.43798       -3.30076        3.39449
C          1.16350       -3.75022        2.11793
C          1.27276       -2.88479        1.04419
H          1.08334       -3.22499        0.03800
H          0.86583       -4.77324        1.95697
H          1.35011       -3.97377        4.23167
H          2.02465       -1.63693        4.59888
H          2.22455       -0.10041        2.67079
C          2.27071        1.16958        0.33914
C          3.42957        1.82772        0.00064
C          3.59275        3.17095        0.30995
C          2.55543        3.83752        0.96127
C          1.38511        3.19092        1.29295
C          1.24159        1.82617        0.99669
O          0.06815        1.12634        1.32103
C         -1.14083        1.79046        1.05787
C         -1.29801        3.15793        1.33371
C         -2.48836        3.77761        1.02464
C         -3.53517        3.07709        0.42717
C         -3.36822        1.72467        0.16451
C         -2.19056        1.08959        0.48243
P         -1.82850       -0.63481        0.09763
C         -1.76202       -1.56875        1.63781
C         -1.40253       -0.95357        2.81491
C         -1.44402       -1.65685        4.00411
C         -1.83913       -2.97965        4.00610
C         -2.18901       -3.59885        2.82262
C         -2.15255       -2.88881        1.63602
H         -2.44006       -3.35533        0.70733
H         -2.49441       -4.63224        2.82274
H         -1.86742       -3.53150        4.93143
H         -1.15940       -1.17509        4.92502
H         -1.07225        0.07101        2.79482
C         -3.14593       -1.37182       -0.88562
C         -4.42689       -1.36484       -0.38156
C         -5.45393       -1.94810       -1.10140
C         -5.18822       -2.54420       -2.31791
C         -3.89901       -2.56468       -2.81141
C         -2.87448       -1.98133       -2.08894
H         -1.86369       -1.99680       -2.46300
H         -3.69024       -3.03337       -3.75906
H         -5.98745       -2.99771       -2.88116
H         -6.45821       -1.93981       -0.71073
H         -4.61544       -0.91804        0.58212
Pd        -0.05489       -0.07926       -1.38813
Cl        -1.73418        0.83377       -2.60939
Cl         1.33320        0.94854       -2.84437
H         -4.15653        1.17514       -0.31772
C         -4.81603        3.75883        0.10072
H         -4.65368        4.81347       -0.12530
H         -5.51255        3.69622        0.93773
H         -5.29192        3.30394       -0.76904
H         -2.60426        4.82477        1.24191
S          0.04516        4.04823        2.07579
H          2.66134        4.88069        1.20159
C          4.85523        3.87726       -0.03539
H          4.20525        1.29893       -0.52585
H          5.25453        3.52201       -0.98632
H          4.69430        4.95230       -0.12520
H          5.61327        3.71274        0.73139
