59
-75.80423288
Cl         1.51676        0.48785        2.37869
P          1.48937        0.07844       -0.80001
P         -1.69541       -0.24626       -0.75382
C          0.48939        0.16760       -2.35314
H          0.17288        1.20259       -2.50089
H          1.13134       -0.10117       -3.19792
C         -0.70908       -0.72804       -2.23656
H         -0.39979       -1.76912       -2.11739
H         -1.35571       -0.67486       -3.11785
C          2.74516       -1.28662       -0.89130
H          2.48414       -1.91665       -1.75066
C          2.62515        1.53761       -0.59221
H          2.32742        2.03755        0.33807
C         -3.11975       -1.40192       -0.46281
H         -3.20658       -1.49942        0.62628
C         -2.64046        1.32993       -1.04619
H         -2.45098        1.61173       -2.08890
C          4.05370       -0.50937       -1.13596
H          4.91134       -1.09585       -0.77431
H          4.21626       -0.37945       -2.21630
C          4.01274        0.88205       -0.44990
H          4.78688        1.53896       -0.86986
H          4.26627        0.77018        0.61456
C         -4.31545       -0.61308       -1.02093
H         -4.43293       -0.85547       -2.08642
H         -5.24913       -0.94151       -0.53875
C         -4.11216        0.91375       -0.85507
H         -4.43301        1.21162        0.15266
H         -4.76132        1.47323       -1.54548
C          2.80645       -2.12894        0.38218
H          2.89695       -1.45482        1.24394
H          3.73718       -2.71331        0.37607
C          2.53651        2.52076       -1.75708
H          2.88223        2.01749       -2.66949
H          1.48562        2.76987       -1.94704
C         -2.96003       -2.78155       -1.09448
H         -3.92686       -3.30255       -1.05580
H         -2.74259       -2.66177       -2.16351
C         -2.23092        2.46413       -0.10739
H         -3.00686        3.24205       -0.13336
H         -2.23809        2.08653        0.92363
C          1.62491       -3.06563        0.56464
H          1.73079       -3.68903        1.45549
H          1.51301       -3.73260       -0.29228
H          0.69398       -2.51170        0.67191
C          3.32222        3.80414       -1.52514
H          4.38793        3.60943       -1.39727
H          2.97949        4.31642       -0.62406
H          3.21838        4.50290       -2.35850
C         -1.89358       -3.62975       -0.42437
H         -1.81973       -4.62514       -0.86842
H         -2.10009       -3.75732        0.63997
H         -0.91372       -3.16329       -0.50745
C         -0.88345        3.08189       -0.43822
H         -0.08485        2.34437       -0.37404
H         -0.87249        3.48581       -1.45230
H         -0.62679        3.89635        0.24308
Cl        -1.68658       -0.48503        2.39954
Pd        -0.08524       -0.02701        0.90069
