171
-217.84037792
P         -1.62590        0.73813        0.23571
P          1.45536       -0.27796       -0.33487
C         -0.88651        1.79663       -1.02566
C          0.54077       -0.97212       -1.72000
C         -0.28553        1.32536       -2.18699
C          0.35286        2.24867       -3.03658
C          0.33630        3.59539       -2.71458
C         -0.26958        4.04419       -1.56140
C         -0.87069        3.13571       -0.71228
C          0.64720       -2.30847       -2.01559
C         -0.05529       -2.84182       -3.07783
C         -0.86830       -2.02642       -3.83754
C         -0.99470       -0.67599       -3.55345
C         -0.25337       -0.12975       -2.48767
Cl         2.25791        1.17706        2.50628
Cl        -0.73335        0.66127        3.52736
C         -1.89197        0.17496       -4.38246
C          1.06546        1.81438       -4.26833
H         -0.26546        5.09392       -1.31724
H         -1.32555        3.46794        0.20938
H          1.28765       -2.93486       -1.41890
H          0.02861       -3.89118       -3.30893
H          0.81795        4.29487       -3.37694
H         -1.41036       -2.43764       -4.67195
C         -3.03795       -3.44250       -0.79469
C         -3.64867       -2.34951       -1.39572
C         -3.16580       -1.08458       -1.08384
C         -2.12350       -0.93275       -0.20273
C         -1.54554       -2.02550        0.40051
C         -1.99617       -3.30836        0.11575
H         -3.40253       -4.42325       -1.03514
H         -3.60854       -0.20390       -1.51538
H         -0.74677       -1.87878        1.10573
C         -5.36298        2.87039        1.67440
C         -4.52201        2.29691        2.62148
C         -3.37864        1.65529        2.16910
C         -3.09224        1.58923        0.83063
C         -3.93333        2.15989       -0.09259
C         -5.08839        2.81668        0.31218
H         -6.24999        3.37478        2.00581
H         -2.68767        1.21992        2.86792
H         -3.67757        2.10517       -1.13788
C          3.69633       -3.66447        1.75348
C          3.96918       -3.36933        0.42449
C          3.28428       -2.31133       -0.15900
C          2.32922       -1.61057        0.53737
C          2.06775       -1.93369        1.84925
C          2.75880       -2.95305        2.48872
H          4.22976       -4.46050        2.23780
H          3.49996       -2.03379       -1.17504
H          1.32755       -1.38057        2.39459
C          4.46220        2.64004       -2.06610
C          4.34974        1.37565       -2.63285
C          3.41785        0.50272       -2.08510
C          2.66592        0.87105       -0.99558
C          2.79566        2.12199       -0.44784
C          3.69216        3.03858       -0.98055
H          5.16981        3.33800       -2.47221
H          3.26341       -0.46609       -2.52818
H          2.19025        2.37818        0.40262
Pd         0.30550        0.63714        1.53214
C         -5.44862       -1.22146       -2.79685
C         -4.84546       -2.56201       -2.33442
C         -5.94199       -3.34951       -1.59179
C         -4.39026       -3.35224       -3.57319
H         -6.30453       -1.38649       -3.45110
H         -5.79196       -0.63611       -1.94431
H         -4.72057       -0.63059       -3.35101
H         -6.25091       -2.82071       -0.69025
H         -6.82084       -3.48287       -2.22244
H         -5.59271       -4.33826       -1.29728
H         -3.62949       -2.80013       -4.12243
H         -3.96824       -4.31697       -3.29377
H         -5.22594       -3.53450       -4.24863
C         -1.57525       -4.31093        2.36920
C         -1.39249       -4.51355        0.85382
C          0.10416       -4.63164        0.52110
C         -2.08055       -5.83345        0.45475
H         -1.05235       -3.42030        2.71352
H         -2.63015       -4.19409        2.61656
H         -1.19140       -5.16416        2.92766
H          0.63899       -3.72576        0.79714
H          0.56072       -5.46430        1.05568
H          0.24892       -4.79951       -0.54544
H         -1.64563       -6.67402        0.99546
H         -3.14498       -5.80738        0.68735
H         -1.96211       -6.03132       -0.61046
C         -6.11294        3.09713        4.44266
C         -4.79818        2.35714        4.13068
C         -3.64139        3.09836        4.82705
C         -4.90030        0.92359        4.68450
H         -6.96341        2.59866        3.97789
H         -6.29454        3.12591        5.51700
H         -6.07772        4.12679        4.08725
H         -2.69412        2.58086        4.67996
H         -3.53601        4.10745        4.42931
H         -3.81603        3.17410        5.90005
H         -3.97075        0.37512        4.53662
H         -5.11493        0.93238        5.75292
H         -5.69674        0.37336        4.18392
C         -6.46090        2.38985       -1.74430
C         -5.99162        3.46521       -0.74665
C         -5.19266        4.54967       -1.49343
C         -7.23502        4.11973       -0.11467
H         -7.12687        2.81691       -2.49390
H         -5.61781        1.94047       -2.26759
H         -6.99910        1.59511       -1.22814
H         -4.83416        5.30976       -0.79955
H         -4.32632        4.12488       -1.99948
H         -5.80999        5.04173       -2.24478
H         -7.86757        4.56761       -0.88104
H         -7.83576        3.38453        0.42050
H         -6.95243        4.90960        0.58103
C          6.24306       -3.22403       -0.60177
C          5.02087       -4.13395       -0.39134
C          4.42802       -4.53461       -1.75724
C          5.47491       -5.41871        0.32881
H          5.96106       -2.30458       -1.11237
H          6.68751       -2.94878        0.35449
H          7.00567       -3.72295       -1.19948
H          5.13929       -5.12872       -2.33075
H          3.52305       -5.12743       -1.62471
H          4.17278       -3.66170       -2.35639
H          5.97946       -5.18911        1.26693
H          4.62517       -6.06713        0.54219
H          6.17569       -5.98076       -0.28847
C          1.48908       -2.34937        4.61382
C          2.53444       -3.28397        3.97160
C          3.86218       -3.11412        4.73324
C          2.04316       -4.73638        4.10221
H          1.80353       -1.30765        4.55210
H          0.52002       -2.44468        4.12629
H          1.35080       -2.58962        5.66771
H          3.73128       -3.31778        5.79584
H          4.62626       -3.79259        4.35592
H          4.23667       -2.09606        4.62797
H          1.86057       -4.99441        5.14520
H          1.11423       -4.87890        3.55227
H          2.77581       -5.43941        3.70760
C          4.35626        0.55152       -5.01318
C          5.23396        0.90619       -3.79925
C          6.02291       -0.34138       -3.35996
C          6.23918        1.99330       -4.22544
H          4.96516        0.17685       -5.83582
H          3.62578       -0.21722       -4.76377
H          3.81818        1.42795       -5.37145
H          6.61975       -0.12730       -2.47358
H          5.35251       -1.16684       -3.12462
H          6.69662       -0.67606       -4.14856
H          6.89846        2.26273       -3.40049
H          6.86448        1.64123       -5.04584
H          5.72473        2.89168       -4.56614
C          5.29697        4.61361        0.12459
C          3.85721        4.44731       -0.39374
C          2.88444        4.69133        0.77749
C          3.57241        5.49326       -1.48702
H          5.51910        3.86647        0.88631
H          6.02281        4.49770       -0.67946
H          5.44163        5.59957        0.56583
H          1.84878        4.58341        0.45619
H          3.06757        3.99138        1.59247
H          3.00320        5.69867        1.17599
H          3.66824        6.50491       -1.09314
H          4.26474        5.39405       -2.32209
H          2.56108        5.37759       -1.87506
H         -2.76567       -0.38564       -4.71736
H          2.02661        2.32332       -4.35008
H         -1.37316        0.54070       -5.26928
H         -2.24983        1.03781       -3.81843
H          0.48487        2.05171       -5.16079
H          1.25819        0.74095       -4.26261
