59
-75.79777103
Cl         1.45309        0.71771        2.37819
P          1.58470       -0.10615       -0.78606
P         -1.60260       -0.16174       -0.84516
C          0.64759        0.38606       -2.30089
H          0.42359        1.45356       -2.23169
H          1.29255        0.23947       -3.17277
C         -0.61983       -0.41894       -2.38785
H         -0.39792       -1.48390       -2.48446
H         -1.23540       -0.13684       -3.24759
C          2.32075       -1.77708       -1.05949
H          1.70316       -2.25866       -1.82927
C          3.14575        0.85919       -0.54622
H          3.24589        0.98579        0.53905
C         -2.89526       -1.44615       -0.51410
H         -2.87180       -1.62299        0.56837
C         -2.68288        1.33232       -1.02661
H         -2.63127        1.62519       -2.08229
C          3.71233       -1.43129       -1.62483
H          4.41512       -2.24757       -1.40168
H          3.65713       -1.38904       -2.72351
C          4.25692       -0.07230       -1.08777
H          4.80502        0.45079       -1.88405
H          5.00688       -0.25028       -0.30363
C         -4.19806       -0.72741       -0.90530
H         -4.40988       -0.92968       -1.96442
H         -5.04936       -1.14715       -0.34766
C         -4.08733        0.80540       -0.67987
H         -4.29881        1.03233        0.37404
H         -4.85403        1.34347       -1.25762
C          2.33054       -2.63263        0.20731
H          2.67405       -3.64498       -0.04815
H          1.29782       -2.75817        0.55998
C          3.09187        2.22986       -1.20890
H          4.09848        2.67118       -1.20802
H          2.83362        2.10298       -2.26820
C         -2.64761       -2.75298       -1.25781
H         -3.54528       -3.38286       -1.18596
H         -2.53313       -2.53670       -2.32788
C         -2.20502        2.47439       -0.13894
H         -2.24055        2.14703        0.90858
H         -1.14398        2.66862       -0.34356
C          3.18328       -2.07800        1.33691
H          2.86186       -1.07608        1.62076
H          4.23412       -2.01303        1.05152
H          3.12948       -2.70051        2.23304
C          2.11435        3.17425       -0.52566
H          2.40157        3.35516        0.51190
H          1.10827        2.75565       -0.50450
H          2.05868        4.14335       -1.02653
C         -1.43898       -3.51073       -0.73098
H         -1.25509       -4.43201       -1.28833
H         -1.56959       -3.78096        0.31866
H         -0.53553       -2.90410       -0.79129
C         -3.01311        3.75035       -0.32045
H         -2.96878        4.10083       -1.35337
H         -4.06567        3.59129       -0.07953
H         -2.64974        4.55919        0.31757
Cl        -1.73895        0.01877        2.31722
Pd        -0.04249        0.05373        0.84638
