111
-148.55787497
P         -2.59996        1.94495        1.05753
P          0.15775        0.47362        0.48742
C         -1.46669        1.58756        2.42643
C         -0.25215        0.98881        2.16741
C         -3.47973        3.55797        1.27213
C         -2.94308        4.60139        0.31656
C         -1.81868        1.89728        3.72443
H         -2.77741        2.34757        3.92341
C         -0.94626        1.61283        4.76097
H         -1.22023        1.85417        5.77504
C          0.27274        1.01758        4.49820
H          0.95050        0.79371        5.30547
C          0.61899        0.70051        3.19702
H          1.55959        0.22093        2.97589
Pd        -1.34523        1.63140       -0.84018
Cl        -3.05646        2.26239       -2.14749
Cl        -0.00363        1.27055       -2.61071
C         -4.95511        3.17861        1.04207
C         -4.04102        0.78855        0.96922
H         -3.06816        4.27859       -0.71835
H         -3.46584        5.55397        0.43047
H         -1.87680        4.77722        0.47825
H         -5.20573        3.36385       -0.01157
H         -5.61649        3.83913        1.62319
H         -4.13166        0.49679       -0.08582
C         -5.22432        1.68434        1.38023
C         -3.83432       -0.42674        1.84682
H         -3.32031        3.86689        2.31299
H         -5.39011        1.57723        2.46112
H         -6.15263        1.33458        0.90332
H         -2.95995       -0.99817        1.52946
H         -3.67434       -0.13215        2.88562
H         -4.70025       -1.09217        1.81896
C         -1.22300       -3.81110       -0.20074
C         -1.00975       -3.34845        1.12331
C         -0.57191       -2.04704        1.30179
C         -0.40914       -1.20538        0.23352
C         -0.70092       -1.61956       -1.03817
C         -1.15643       -2.90178       -1.28725
O         -1.46643       -5.18974       -0.44000
C         -1.21496       -4.24500        2.35413
H         -0.34542       -1.67173        2.28407
H         -0.55915       -0.91628       -1.84033
C         -1.55246       -3.28140       -2.72233
C          4.58736        0.67077       -0.53304
C          4.04821       -0.48926        0.07970
C          2.69308       -0.50888        0.36400
C          1.90496        0.58792        0.13158
C          2.44132        1.74913       -0.35810
C          3.78834        1.83508       -0.67072
O          5.91325        0.65378       -1.04209
C          4.89335       -1.73188        0.40105
H          2.22577       -1.39565        0.75689
H          1.78274        2.58559       -0.51663
C          4.34798        3.16518       -1.19894
C         -1.59346       -3.40077        3.59265
C         -2.36383       -5.24352        2.12426
C          0.08993       -4.99732        2.65624
C         -2.11198       -2.05003       -3.47276
C         -0.31367       -3.79344       -3.47241
C         -2.65985       -4.35053       -2.72977
C         -0.29060       -5.94976       -0.68954
H         -2.45140       -2.76341        3.38131
H         -1.85505       -4.04364        4.43281
H         -0.76820       -2.76966        3.91911
H         -2.55226       -5.83697        3.01856
H         -3.28261       -4.71804        1.86579
H         -2.13453       -5.93234        1.31493
H         -0.02003       -5.63278        3.53462
H          0.38396       -5.62772        1.82061
H          0.90334       -4.29704        2.84538
H         -2.51699       -2.33847       -4.44233
H         -2.91210       -1.57881       -2.90248
H         -1.34088       -1.30409       -3.65868
H         -0.56160       -4.06052       -4.49933
H          0.46238       -3.02883       -3.50027
H          0.10555       -4.67214       -2.98791
H         -3.52624       -4.00873       -2.16448
H         -2.98375       -4.57223       -3.74633
H         -2.31727       -5.28071       -2.28372
H          0.59491       -5.31730       -0.61399
H         -0.22082       -6.76133        0.03464
H         -0.34068       -6.38698       -1.68652
C          6.00970        0.21598       -2.39187
C          6.34246       -1.34422        0.74667
C          4.32181       -2.47690        1.62954
C          4.87083       -2.68643       -0.80256
C          4.21334        3.19772       -2.72907
C          3.56351        4.36020       -0.61106
C          5.82022        3.35193       -0.78950
H          6.84276       -0.88140       -0.10016
H          6.36291       -0.63579        1.57413
H          6.92425       -2.21944        1.03477
H          4.98925       -3.28084        1.93915
H          4.20195       -1.79795        2.47343
H          3.35548       -2.93047        1.41373
H          5.28432       -2.21294       -1.68969
H          5.45190       -3.58551       -0.59891
H          3.84992       -2.98938       -1.03450
H          3.17006        3.09098       -3.02547
H          4.58578        4.13809       -3.13443
H          4.77190        2.38767       -3.19154
H          3.52797        4.30327        0.47656
H          4.03676        5.30388       -0.88147
H          2.54228        4.39657       -0.98734
H          6.45620        2.59101       -1.23464
H          5.92864        3.28642        0.29258
H          6.19588        4.32332       -1.11007
H          6.46395        0.99898       -2.99883
H          6.64556       -0.66749       -2.44595
H          5.02086       -0.02233       -2.78578
