87
-129.18446910
P         -1.46375       -0.39660       -0.29174
P          1.74935        0.39754        0.12817
C         -1.14899        0.80786       -1.58878
C          1.63635       -0.75914       -1.25864
C         -0.08309        0.61852       -2.45975
C          0.15313        1.57976       -3.46293
C         -0.69065        2.67388       -3.56070
C         -1.74600        2.83996       -2.68886
C         -1.97155        1.90183       -1.70115
C          2.39821       -1.89777       -1.14348
C          2.32177       -2.89393       -2.09659
C          1.46418       -2.74921       -3.16452
C          0.67877       -1.61781       -3.29965
C          0.77016       -0.59299       -2.33768
Cl         1.17885        0.28896        3.31940
Cl        -1.39209       -1.64775        2.66683
H         -2.38932        3.70034       -2.77410
H         -2.79600        2.02149       -1.01818
H          3.05509       -2.01281       -0.29702
H          2.92235       -3.78349       -1.99945
H         -0.50709        3.40648       -4.32825
H          1.39158       -3.52687       -3.90591
C         -2.11344       -4.50985       -2.10225
C         -2.71402       -3.40217       -2.68457
C         -2.51473       -2.15606       -2.10044
C         -1.72746       -2.03051       -0.97964
C         -1.14058       -3.13347       -0.40585
C         -1.33149       -4.37968       -0.97140
H         -2.26771       -5.48027       -2.54248
C         -3.57548       -3.54956       -3.88912
H         -2.96893       -1.27835       -2.53050
H         -0.54838       -3.01701        0.48708
H         -0.87342       -5.24818       -0.52733
C         -5.10897        0.90546        2.11274
C         -5.14759       -0.27283        1.39337
C         -4.04488       -0.67058        0.66123
C         -2.91557        0.11353        0.65026
C         -2.87435        1.28617        1.36848
C         -3.96946        1.69808        2.11689
H         -5.96782        1.21827        2.68175
H         -6.03526       -0.88385        1.40444
H         -4.05776       -1.59169        0.10187
H         -1.98579        1.89321        1.34640
C         -3.92181        2.97765        2.87534
C          5.73265       -0.09985        2.27813
C          5.53187        0.97447        1.43421
C          4.32054        1.12471        0.78546
C          3.31937        0.20315        0.98657
C          3.51863       -0.86892        1.82571
C          4.73177       -1.03975        2.48140
H          6.67179       -0.21392        2.79224
H          6.31658        1.69778        1.28411
H          4.14841        1.96146        0.12839
H          2.71908       -1.57180        1.99272
C          4.92640       -2.17920        3.41861
C          0.87335        4.76178       -0.78574
C          1.76555        4.06688       -1.57900
C          2.05026        2.74281       -1.30137
C          1.43871        2.12768       -0.23486
C          0.57756        2.82767        0.57883
C          0.27426        4.15643        0.31048
H          0.63616        5.78728       -1.01224
H          2.22895        4.55125       -2.42279
H          2.72875        2.17913       -1.92171
H          0.15936        2.34722        1.44652
C         -0.70672        4.89173        1.15386
Pd         0.02786       -0.35576        1.50828
C          1.29188        1.45033       -4.41393
C         -0.24537       -1.51625       -4.46373
H          1.83995        2.39024       -4.49381
H          1.99823        0.68475       -4.09105
H          0.93765        1.18400       -5.41052
H          0.30113       -1.26495       -5.37346
H         -0.76040       -2.46265       -4.63384
H         -1.00750       -0.75268       -4.30533
H         -4.58143       -3.86542       -3.60927
H         -3.65833       -2.60754       -4.43325
H         -3.16677       -4.29325       -4.57481
H         -4.11759        3.82572        2.21762
H         -4.66416        2.99219        3.67448
H         -2.94162        3.12396        3.33164
H          4.41737       -3.07420        3.05785
H          5.98376       -2.42201        3.53286
H          4.52638       -1.93963        4.40480
H         -0.67149        4.54641        2.18814
H         -0.50191        5.96315        1.15474
H         -1.72208        4.74249        0.78364
