59
-75.80096541
Cl         1.39349        0.52545        2.43150
P          1.43362        0.12202       -0.80336
P         -1.72536       -0.19194       -0.78865
C          0.46195        0.29750       -2.36513
H          0.15413        1.34082       -2.46594
H          1.11274        0.06349       -3.21336
C         -0.73939       -0.60162       -2.29720
H         -0.43143       -1.64799       -2.23041
H         -1.38467       -0.50411       -3.17583
C          2.55191       -1.34951       -0.87026
H          2.30622       -1.90701       -1.78270
C          2.67267        1.46930       -0.51278
H          2.35529        2.00132        0.39299
C         -3.05850       -1.43126       -0.44640
H         -3.12642       -1.50904        0.64557
C         -2.76713        1.31598       -1.07938
H         -2.61361        1.59808       -2.12793
C          3.95094       -0.70732       -0.95611
H          4.69947       -1.37364       -0.50462
H          4.24802       -0.59934       -2.00988
C          3.97927        0.68631       -0.26880
H          4.84027        1.27025       -0.62256
H          4.13691        0.55409        0.81189
C         -4.31058       -0.73511       -1.00468
H         -4.41957       -0.99910       -2.06593
H         -5.21576       -1.11881       -0.50909
C         -4.20606        0.80701       -0.85798
H         -4.52836        1.09503        0.15214
H         -4.90203        1.31424       -1.54309
C          2.34863       -2.23211        0.35714
H          1.27577       -2.42644        0.48649
H          2.64472       -1.66559        1.25034
C          2.73522        2.44149       -1.68650
H          3.07597        1.89736       -2.57725
H          1.71945        2.78238       -1.92642
C         -2.77865       -2.80486       -1.04449
H         -3.68785       -3.41814       -0.97444
H         -2.59000       -2.69370       -2.11998
C         -2.39032        2.47423       -0.15888
H         -3.18535        3.23200       -0.19887
H         -2.38942        2.11244        0.87785
C          3.10376       -3.55197        0.28866
H          2.91868       -4.17364        1.16767
H          4.18160       -3.39694        0.22233
H          2.80707       -4.12922       -0.58914
C          3.62549        3.64868       -1.42504
H          4.66102        3.35632       -1.24537
H          3.29034        4.20002       -0.54442
H          3.62685        4.34514       -2.26672
C         -1.61858       -3.51838       -0.36764
H         -1.81724       -3.67416        0.69445
H         -0.70059       -2.93472       -0.43570
H         -1.42013       -4.49592       -0.81290
C         -1.05387        3.11674       -0.49646
H         -1.04523        3.49722       -1.51957
H         -0.82258        3.95314        0.16701
H         -0.23500        2.40285       -0.41096
Cl        -1.84577       -0.18778        2.33057
Pd        -0.13771       -0.00033        0.88534
