105
-153.05922108
Cl         2.93476        2.18357        0.10231
Pd         0.79995        1.78227       -0.48755
P         -1.33088        1.24370       -1.27275
N         -1.39377       -0.38250       -0.71473
C         -0.41128       -1.25913       -1.16037
C         -0.06969       -2.33573       -0.30395
C          1.03110       -3.15027       -0.62527
C          1.44301       -4.25513        0.31460
C          2.20207       -5.38453       -0.39462
C          3.38397       -4.81095       -1.18316
C          2.91967       -3.77598       -2.22428
C          1.75572       -2.91164       -1.79709
C          1.38402       -1.86123       -2.63139
C          0.32734       -1.04508       -2.32294
H          0.06705       -0.22425       -2.96504
H          1.94800       -1.68886       -3.53240
H          3.75537       -3.12072       -2.50107
H          4.08335       -4.33638       -0.48471
H          2.53782       -6.14639        0.32308
H          2.08025       -3.82439        1.09320
C         -0.99607       -2.67394        0.81059
C         -1.16524       -1.84676        1.95646
C         -2.03009       -2.28049        2.96123
C         -2.73879       -3.44755        2.84312
C         -2.65368       -4.22651        1.69728
C         -3.51938       -5.46130        1.61226
C         -3.26435       -6.33642        0.37410
C         -3.00706       -5.47243       -0.86376
C         -1.77929       -4.57645       -0.64594
C         -1.80228       -3.82481        0.66579
H         -0.87297       -5.18887       -0.69559
H         -3.88538       -4.84402       -1.05758
H         -4.10368       -7.02467        0.20083
H         -4.56972       -5.14629        1.62756
H         -3.40113       -3.75642        3.63427
H         -2.14892       -1.66907        3.83910
N         -0.59171       -0.58897        2.13216
P          0.75723        0.26035        1.34954
C          2.18638       -0.82243        1.36451
C          3.11110       -0.82996        0.34786
C          4.23410       -1.63024        0.44532
C          4.43961       -2.42799        1.56327
C          3.49656       -2.40534        2.58120
C          2.37029       -1.60779        2.47794
H          1.63200       -1.58854        3.26436
H          3.64850       -3.01762        3.45361
C          5.65381       -3.28150        1.68516
H          4.96234       -1.63373       -0.34748
H          2.95722       -0.20378       -0.51560
C          1.13354        1.59412        2.50955
C          2.31134        1.60100        3.21899
C          2.58915        2.63901        4.08877
C          1.68537        3.67826        4.26023
C          0.50619        3.66110        3.52879
C          0.23276        2.62133        2.65986
H         -0.67812        2.61807        2.08746
H         -0.19479        4.47095        3.63848
C          1.99684        4.81330        5.17233
H          3.51632        2.65153        4.63592
H          3.02108        0.80284        3.08005
H         -0.70660       -0.16191        3.04362
H         -1.35253       -0.33089        0.30069
C         -1.83569        1.26047       -2.99156
C         -1.25167        2.10713       -3.90213
C         -1.66192        2.08892       -5.22119
C         -2.66628        1.22430       -5.63563
C         -3.23789        0.36847       -4.70321
C         -2.82433        0.38959       -3.38272
H         -3.25725       -0.27714       -2.65323
H         -4.00620       -0.31702       -5.01761
C         -3.09110        1.18453       -7.06239
H         -1.20180        2.74618       -5.93915
H         -0.47197        2.77322       -3.57383
C         -2.40094        2.27825       -0.27899
C         -2.93728        3.42688       -0.80982
C         -3.72741        4.24210       -0.01970
C         -3.98415        3.91011        1.30413
C         -3.42050        2.75294        1.82426
C         -2.63223        1.93869        1.03337
H         -2.16836        1.05962        1.45023
H         -3.59626        2.49806        2.85555
C         -4.80734        4.80407        2.16471
H         -4.14538        5.14698       -0.42662
H         -2.72742        3.68497       -1.83566
Cl         0.85696        3.46927       -1.96985
H          2.63772       -4.29212       -3.14989
H          1.52368       -5.90345       -1.08309
H          3.95605       -5.61697       -1.66382
H          0.57117       -4.64753        0.85019
H         -2.88571       -6.09682       -1.76027
H         -1.69065       -3.85377       -1.46715
H         -3.37875       -6.05053        2.52746
H         -2.39182       -6.97727        0.55378
H          6.21305       -3.31502        0.74916
H          6.32034       -2.89802        2.45884
H          5.38523       -4.30550        1.94908
H          2.53236        5.60072        4.64031
H          1.08576        5.24677        5.58719
H          2.61866        4.48819        6.00761
H         -2.48686        0.47281       -7.62655
H         -4.13632        0.88590       -7.15404
H         -2.98471        2.16332       -7.53219
H         -5.55096        5.34267        1.57566
H         -5.33945        4.23475        2.92813
H         -4.18012        5.54005        2.66957
