111
-148.55037440
P         -2.63706        1.88248        0.20325
P          0.19467        0.47283        0.42256
C         -1.75076        1.86420        1.78924
C         -0.50011        1.29108        1.86934
C         -3.72333        3.38035        0.09239
C         -3.47070        4.16776       -1.17392
C         -2.32923        2.40575        2.92007
H         -3.31626        2.83398        2.86199
C         -1.64795        2.37962        4.12477
H         -2.09980        2.80361        5.00665
C         -0.39325        1.80650        4.19985
H          0.13516        1.78147        5.13867
C          0.17971        1.25387        3.06890
H          1.14872        0.78168        3.11490
Pd        -1.05357        1.25312       -1.36539
Cl        -2.47046        1.86305       -2.98968
Cl         0.54125        0.54057       -2.78019
C         -5.14341        2.78290        0.18318
C         -3.90461        0.53976        0.06648
H         -2.42073        4.45661       -1.26030
H         -3.72231        3.57212       -2.05219
H         -4.07705        5.07588       -1.21033
H         -5.84111        3.40642       -0.39477
H         -5.50179        2.82430        1.22226
H         -3.58197       -0.12175       -0.74955
C         -5.18452        1.31075       -0.31572
C         -4.01413       -0.23506        1.36155
H         -3.49654        4.00080        0.96957
H         -6.06330        0.78808        0.08941
H         -5.31155        1.30203       -1.40836
H         -4.31026        0.42325        2.18038
H         -4.75690       -1.03330        1.29111
H         -3.05800       -0.68702        1.63306
C         -1.43411       -3.77867        0.39372
C         -0.98998       -3.18651       -0.81586
C         -0.47819       -1.90268       -0.76356
C         -0.33788       -1.23998        0.42710
C         -0.65648       -1.85335        1.61037
C         -1.16859       -3.14007        1.63257
O         -2.18854       -4.98143        0.36185
C         -1.11778       -3.87799       -2.18141
H         -0.20845       -1.38202       -1.66531
H         -0.52834       -1.29791        2.52277
C         -1.47272       -3.80005        2.98649
C          4.71383        0.90787        0.03478
C          3.95876        1.94070        0.64651
C          2.58947        1.76925        0.76923
C          1.96822        0.65390        0.26961
C          2.68046       -0.29775       -0.41182
C          4.04889       -0.17865       -0.58852
O          6.13321        0.94710        0.07301
C          4.60968        3.21812        1.19992
H          1.98456        2.50743        1.26658
H          2.14597       -1.13980       -0.81555
C          4.78362       -1.22027       -1.44707
C         -2.45758       -3.48266       -2.82123
C          0.02771       -3.43972       -3.12214
C         -1.02280       -5.40825       -2.04512
C         -1.31560       -5.32941        2.90582
C         -0.48603       -3.30250        4.06714
C         -2.90047       -3.43740        3.42295
C         -3.59231       -4.77626        0.25900
H         -3.29613       -3.78583       -2.19851
H         -2.51703       -2.40244       -2.95345
H         -2.57676       -3.94938       -3.79857
H         -0.05041       -2.38857       -3.39508
H          0.99638       -3.60142       -2.65094
H          0.00733       -4.01227       -4.04906
H         -0.09447       -5.69220       -1.55059
H         -1.84724       -5.80725       -1.45986
H         -1.04848       -5.89093       -3.02177
H         -2.03842       -5.76693        2.22174
H         -0.31932       -5.59467        2.55364
H         -1.46466       -5.79087        3.88169
H          0.54503       -3.43240        3.73932
H         -0.64127       -2.25059        4.30227
H         -0.61525       -3.85962        4.99479
H         -3.14551       -3.90015        4.37859
H         -3.00775       -2.35886        3.53483
H         -3.63319       -3.76931        2.69124
H         -4.09309       -5.24349        1.10682
H         -3.82104       -3.70979        0.24401
H         -3.96488       -5.23928       -0.65455
C          6.70288        0.27250        1.18764
C          5.03178        2.98205        2.65798
C          5.82897        3.62846        0.35414
C          3.61603        4.40119        1.16110
C          5.22910       -2.39201       -0.55958
C          3.85030       -1.76491       -2.55274
C          5.99970       -0.59651       -2.15564
H          5.48690        3.87649        3.08258
H          4.16990        2.71811        3.27051
H          5.75184        2.17087        2.73328
H          6.25121        4.56952        0.70566
H          6.61452        2.87825        0.40070
H          5.54664        3.75225       -0.69081
H          3.19773        4.52343        0.16234
H          2.79556        4.26157        1.86348
H          4.11295        5.33253        1.43186
H          5.74464       -3.15190       -1.14631
H          5.90370       -2.05837        0.22523
H          4.36969       -2.86073       -0.08065
H          3.40375       -0.94866       -3.12009
H          4.40097       -2.39641       -3.24948
H          3.04794       -2.37186       -2.13719
H          6.48059       -1.31699       -2.81677
H          6.74520       -0.25754       -1.44071
H          5.69560        0.26227       -2.75315
H          7.31071        0.96977        1.76403
H          5.91926       -0.13983        1.82451
H          7.34885       -0.53250        0.83781
