171
-217.83745640
P         -1.66062        0.72212        0.22256
P          1.49821       -0.23615       -0.33363
C         -0.93067        1.80692       -1.02641
C          0.58413       -0.93141       -1.72375
C         -0.28005        1.35809       -2.17018
C          0.35765        2.29921       -3.00025
C          0.28251        3.64487       -2.68348
C         -0.37769        4.07367       -1.55234
C         -0.97075        3.14642       -0.71742
C          0.68232       -2.26843       -2.02240
C         -0.01776       -2.79853       -3.08769
C         -0.82661       -1.98078       -3.84841
C         -0.95705       -0.63325       -3.55503
C         -0.21837       -0.09157       -2.48525
Cl         2.23508        1.21341        2.46900
Cl        -0.79605        0.59966        3.46722
C         -1.85812        0.22169       -4.37603
C          1.13091        1.88316       -4.20261
H         -0.42065        5.12363       -1.31298
H         -1.46368        3.46458        0.18941
H          1.30758       -2.90411       -1.42089
H          0.06400       -3.84789       -3.31969
H          0.75949        4.35949       -3.33286
H         -1.36430       -2.38748       -4.68778
C         -2.86526       -3.54119       -0.73309
C         -3.51463       -2.49109       -1.36948
C         -3.09389       -1.19829       -1.08218
C         -2.06991       -0.97894       -0.19391
C         -1.45071       -2.03104        0.44073
C         -1.84222       -3.33892        0.18585
H         -3.18620       -4.54249       -0.94997
H         -3.57265       -0.34865       -1.53702
H         -0.66867       -1.83386        1.15227
C         -5.50897        2.69313        1.57807
C         -4.66291        2.16687        2.54678
C         -3.48130        1.57406        2.12327
C         -3.16904        1.51285        0.78971
C         -4.01676        2.03657       -0.15501
C         -5.20838        2.64220        0.22175
H         -6.42326        3.15712        1.89701
H         -2.78044        1.16812        2.82910
H         -3.73897        1.98316       -1.19486
C          3.78749       -3.61870        1.69584
C          3.96662       -3.38466        0.33959
C          3.27649       -2.32358       -0.23339
C          2.40690       -1.56050        0.50921
C          2.23672       -1.82408        1.84850
C          2.93342       -2.84904        2.47237
H          4.33227       -4.41931        2.16149
H          3.40189       -2.09921       -1.27712
H          1.56176       -1.22020        2.42390
C          4.40990        2.83411       -1.96100
C          3.56818        3.19753       -0.91766
C          2.69399        2.23818       -0.42468
C          2.67027        0.97261       -0.95462
C          3.50192        0.63498       -1.99396
C          4.39298        1.56184       -2.52057
H          5.09977        3.56561       -2.33741
H          2.02327        2.47338        0.38184
H          3.44717       -0.35605       -2.40844
Pd         0.28400        0.66071        1.49847
C         -5.31904       -1.47942       -2.85147
C         -4.69356       -2.77958       -2.31042
C         -5.78070       -3.55139       -1.53870
C         -4.20650       -3.62358       -3.50097
H         -4.59240       -0.89849       -3.41784
H         -6.15536       -1.69832       -3.51519
H         -5.69668       -0.86174       -2.03714
H         -5.40973       -4.51165       -1.18261
H         -6.11619       -2.98013       -0.67328
H         -6.64636       -3.74385       -2.17229
H         -3.44839       -3.08591       -4.06779
H         -3.77138       -4.56512       -3.16797
H         -5.02924       -3.85555       -4.17708
C         -1.86115       -5.84731        0.63648
C         -1.19289       -4.49703        0.96025
C         -1.34034       -4.23488        2.47100
C          0.29695       -4.59516        0.59436
H         -1.40340       -6.65211        1.21168
H         -2.92282       -5.82818        0.88208
H         -1.75292       -6.09629       -0.41901
H         -2.38979       -4.11631        2.73967
H         -0.93592       -5.06267        3.05273
H         -0.81545       -3.32857        2.76874
H          0.78705       -5.39242        1.15276
H          0.42026       -4.80503       -0.46751
H          0.81434       -3.66518        0.81853
C         -5.18409        3.73983        4.42911
C         -5.04456        2.25905        4.03126
C         -3.97630        1.61032        4.93390
C         -6.38171        1.53037        4.25909
H         -5.96587        4.23318        3.85280
H         -5.43591        3.83806        5.48492
H         -4.25077        4.27442        4.25336
H         -3.01263        2.10652        4.82125
H         -4.26179        1.67978        5.98336
H         -3.84968        0.55452        4.69558
H         -7.18545        1.98673        3.68255
H         -6.30595        0.48544        3.95879
H         -6.66780        1.55977        5.31033
C         -6.52083        2.13069       -1.85410
C         -6.12275        3.23652       -0.85870
C         -5.36453        4.35236       -1.60154
C         -7.40757        3.83424       -0.25404
H         -7.02848        1.31490       -1.33980
H         -7.19344        2.51790       -2.61924
H         -5.64750        1.71869       -2.35827
H         -4.46835        3.96652       -2.08641
H         -5.99086        4.80562       -2.36968
H         -5.05796        5.13607       -0.90905
H         -7.17615        4.64253        0.43940
H         -8.04784        4.24424       -1.03506
H         -7.98062        3.07471        0.27753
C          4.44229       -5.75598       -0.32612
C          4.89731       -4.29185       -0.47718
C          6.33764       -4.13599        0.04161
C          4.87144       -3.93297       -1.97607
H          3.41123       -5.87405       -0.65934
H          5.06751       -6.42182       -0.92074
H          4.49875       -6.08603        0.71036
H          6.66754       -3.10088       -0.04572
H          6.41249       -4.42331        1.08984
H          7.02726       -4.75986       -0.52672
H          5.22471       -2.91635       -2.14283
H          5.51711       -4.60162       -2.54523
H          3.86398       -4.02040       -2.38283
C          4.17164       -2.93454        4.64734
C          2.79957       -3.12785        3.97628
C          2.31660       -4.57392        4.18814
C          1.79254       -2.17118        4.64665
H          4.10870       -3.10677        5.72163
H          4.91136       -3.62352        4.24131
H          4.53649       -1.91996        4.48832
H          2.19337       -4.79263        5.24867
H          1.35786       -4.73466        3.69743
H          3.02541       -5.29327        3.77983
H          2.10693       -1.13297        4.54155
H          0.79931       -2.27495        4.21164
H          1.70828       -2.38271        5.71232
C          2.60748        4.80873        0.80202
C          3.64283        4.61098       -0.32332
C          3.36625        5.64790       -1.42696
C          5.04809        4.83735        0.26305
H          2.66486        5.81847        1.20792
H          1.59332        4.65851        0.43329
H          2.78243        4.11352        1.62285
H          3.40374        6.66130       -1.02772
H          4.09909        5.57900       -2.22989
H          2.37899        5.49386       -1.86046
H          5.26596        4.09754        1.03311
H          5.81553        4.75588       -0.50581
H          5.12899        5.82693        0.71240
C          6.10085        2.34816       -4.23657
C          5.36550        1.13670       -3.63099
C          4.60059        0.42586       -4.76488
C          6.40508        0.17417       -3.03065
H          6.74519        2.03762       -5.05902
H          5.39265        3.07917       -4.62660
H          6.73216        2.83837       -3.49593
H          3.84318        1.08207       -5.19159
H          5.27924        0.13499       -5.56658
H          4.10524       -0.47750       -4.41198
H          5.92254       -0.70644       -2.60900
H          7.11437       -0.15948       -3.78784
H          6.96498        0.66069       -2.23220
H         -2.69231       -0.35633       -4.77614
H          0.58755        2.11937       -5.11849
H         -1.32139        0.65709       -5.21961
H         -2.27566        1.03681       -3.78268
H          1.33666        0.81202       -4.19576
H          2.08986        2.40233       -4.23931
