171
-217.83923058
P         -1.70036        0.62494       -0.12960
P          1.43235       -0.34322       -0.39097
C         -1.06640        1.55202       -1.54730
C          0.59462       -1.22292       -1.71854
C         -0.30845        0.95522       -2.55209
C          0.31595        1.77565       -3.51178
C          0.10206        3.14271       -3.47872
C         -0.69107        3.71287       -2.50703
C         -1.25810        2.91364       -1.53423
C          0.71445       -2.58964       -1.79764
C          0.07870       -3.28937       -2.80408
C         -0.69690       -2.61276       -3.72038
C         -0.85378       -1.23889       -3.64469
C         -0.17962       -0.52349       -2.63517
Cl         1.99534        1.30075        2.35741
Cl        -1.15317        0.74135        3.15625
C         -1.71799       -0.54010       -4.63595
C          1.21820        1.21040       -4.55290
H         -0.85245        4.77852       -2.49378
H         -1.85669        3.35991       -0.75792
H          1.30017       -3.11785       -1.06427
H          0.18673       -4.35936       -2.87318
H          0.56913        3.76170       -4.22622
H         -1.19268       -3.15416       -4.50807
C         -3.12568       -3.61398       -0.80053
C         -3.71086       -2.58888       -1.53372
C         -3.23979       -1.29690       -1.33356
C         -2.24409       -1.05730       -0.41940
C         -1.68815       -2.08061        0.31064
C         -2.11096       -3.38953        0.12121
H         -3.48112       -4.61797       -0.94244
H         -3.64599       -0.46548       -1.88420
H         -0.91869       -1.85105        1.02615
C         -4.83980        2.99314        2.13090
C         -5.22555        1.83622        1.46407
C         -4.25050        1.12801        0.77274
C         -2.94982        1.56659        0.75434
C         -2.58699        2.70872        1.42318
C         -3.52658        3.44856        2.12683
H         -5.58555        3.54304        2.67351
H         -4.49609        0.21925        0.25346
H         -1.55255        3.01037        1.42398
C          3.91491       -3.37793        1.93770
C          4.10053       -3.24294        0.56861
C          3.33720       -2.29393       -0.09980
C          2.40498       -1.53629        0.56839
C          2.22258       -1.70916        1.92006
C          2.98220       -2.62385        2.63569
H          4.52165       -4.08180        2.47711
H          3.44914       -2.16021       -1.16058
H          1.48953       -1.11505        2.43130
C          4.12746        2.91424       -2.03504
C          3.09726        3.26055       -1.17027
C          2.28998        2.24171       -0.68318
C          2.51151        0.93526       -1.04282
C          3.52719        0.61408       -1.90861
C          4.36060        1.59953       -2.42214
H          4.76603        3.69385       -2.40546
H          1.47595        2.46567       -0.01744
H          3.67171       -0.41236       -2.19345
Pd         0.12381        0.63833        1.30882
C         -5.38617       -1.62820       -3.19231
C         -4.86376       -2.90108       -2.49799
C         -6.02556       -3.53208       -1.70795
C         -4.37623       -3.88305       -3.57827
H         -4.60198       -1.14830       -3.77624
H         -6.20413       -1.86636       -3.87210
H         -5.76157       -0.91005       -2.46387
H         -6.87169       -3.74450       -2.36120
H         -5.72403       -4.46775       -1.23867
H         -6.36668       -2.85838       -0.92205
H         -5.17668       -4.12147       -4.27843
H         -3.55149       -3.45285       -4.14462
H         -4.02865       -4.81687       -3.13805
C         -2.62627       -5.15897        1.81432
C         -1.52488       -4.56209        0.92027
C         -0.35537       -4.11174        1.81618
C         -0.99949       -5.63968       -0.04618
H         -2.24035       -5.98584        2.41028
H         -3.01805       -4.40460        2.49642
H         -3.45719       -5.53482        1.21826
H          0.06299       -4.96085        2.35551
H          0.44514       -3.67114        1.22312
H         -0.68324       -3.38034        2.55419
H         -0.58144       -6.48351        0.50248
H         -1.79181       -6.02093       -0.68889
H         -0.21486       -5.23442       -0.68335
C         -7.07312        1.09354        2.98669
C         -6.68644        1.36683        1.52168
C         -6.90021        0.07244        0.71138
C         -7.59749        2.46220        0.93802
H         -8.10054        0.73728        3.05941
H         -6.42103        0.33593        3.42096
H         -6.98887        1.99443        3.59330
H         -6.65124        0.22248       -0.33880
H         -6.28690       -0.74046        1.09989
H         -7.94079       -0.24797        0.76069
H         -7.52299        3.38644        1.50976
H         -7.32124        2.68306       -0.09287
H         -8.64097        2.14771        0.94800
C         -2.04952        4.28592        3.96575
C         -3.06960        4.70017        2.88847
C         -4.24994        5.41236        3.57567
C         -2.41046        5.68430        1.90329
H         -1.17193        3.81825        3.52080
H         -1.71361        5.14932        4.53952
H         -2.49120        3.56936        4.65776
H         -4.72823        4.76204        4.30778
H         -3.91003        6.30481        4.10102
H         -4.99825        5.72277        2.84663
H         -3.10716        5.96215        1.11265
H         -2.09693        6.59510        2.41306
H         -1.52963        5.24714        1.43445
C          4.82955       -5.60289        0.12204
C          5.13231       -4.11834       -0.15660
C          6.54001       -3.76720        0.35641
C          5.09467       -3.89803       -1.68213
H          3.82070       -5.85675       -0.20329
H          5.52811       -6.24941       -0.40887
H          4.90687       -5.83311        1.18383
H          7.29967       -4.36536       -0.14652
H          6.76347       -2.71573        0.17631
H          6.62564       -3.94833        1.42732
H          5.81255       -4.54640       -2.18432
H          4.10738       -4.12220       -2.08599
H          5.34773       -2.86994       -1.93839
C          1.71114       -1.90229        4.72173
C          2.85456       -2.77119        4.15914
C          4.17370       -2.32422        4.81447
C          2.56942       -4.24102        4.51814
H          0.75459       -2.17383        4.27633
H          1.62150       -2.03171        5.80005
H          1.89112       -0.84415        4.53297
H          4.39714       -1.28864        4.55862
H          4.11622       -2.39970        5.90015
H          5.00842       -2.93898        4.47942
H          2.46425       -4.36464        5.59586
H          1.64640       -4.58043        4.05037
H          3.37406       -4.89586        4.18640
C          1.68285        4.88593        0.18711
C          2.89906        4.72333       -0.74783
C          2.67328        5.59319       -1.99752
C          4.15489        5.20454        0.00105
H          1.54776        5.92988        0.46929
H          0.76617        4.55523       -0.29956
H          1.81266        4.31166        1.10426
H          2.51170        6.63544       -1.72296
H          3.53035        5.55468       -2.66866
H          1.79963        5.25178       -2.55096
H          4.04030        6.23621        0.33312
H          4.33858        4.58514        0.87879
H          5.03805        5.15404       -0.63476
C          6.26051        2.43070       -3.89964
C          5.53160        1.19797       -3.33113
C          5.01315        0.35686       -4.51346
C          6.53378        0.36784       -2.50848
H          7.06622        2.12876       -4.56874
H          5.57673        3.06152       -4.46753
H          6.70343        3.02863       -3.10347
H          4.29558        0.92363       -5.10540
H          5.83217        0.06543       -5.17082
H          4.52377       -0.55464       -4.17298
H          6.06500       -0.53097       -2.11001
H          7.38324        0.06167       -3.11872
H          6.91266        0.94622       -1.66609
H         -1.14044       -0.23174       -5.50806
H          0.74618        1.23438       -5.53597
H         -2.17670        0.34940       -4.20139
H         -2.52213       -1.18968       -4.98413
H          1.48979        0.17756       -4.33065
H          2.14217        1.78748       -4.61138
