64
-97.20891740
Cl        -1.53684       -1.61722       -2.51422
Cl         1.60808       -1.55426       -2.80820
P          1.98594       -0.61573        0.22409
C          2.25974       -2.27307        1.00059
C          3.74486       -0.14463       -0.13198
P         -1.30600       -0.13841        0.43037
C          1.28015        0.60296        1.39260
C         -0.14980        0.83260        1.47054
C         -0.35916        1.98828        2.33046
C          0.93486        2.44025        2.81142
C          1.95188        1.57922        2.23550
H         -1.32107        2.44343        2.57157
H          1.11176        3.28016        3.48711
Pd         0.16489       -1.00270       -1.18065
H          3.03044        1.66322        2.38228
C         -4.86985        2.40564       -0.82266
C         -4.50148        2.33441        0.50636
C         -3.42750        1.54781        0.88324
C         -2.72479        0.84521       -0.06912
C         -3.10762        0.89420       -1.39021
C         -4.17727        1.68126       -1.77230
H         -5.70560        3.01908       -1.11761
H         -5.05015        2.88886        1.24995
H         -3.14505        1.46501        1.92005
H         -2.58370        0.29117       -2.11249
H         -4.47376        1.72207       -2.80761
C         -2.76727       -3.86068        2.58041
C         -2.39144       -2.74884        3.30942
C         -1.95106       -1.61220        2.65494
C         -1.88912       -1.59990        1.28073
C         -2.26508       -2.70252        0.55031
C         -2.70594       -3.83991        1.20055
H         -3.11041       -4.74646        3.08973
H         -2.44007       -2.76582        4.38584
H         -1.64992       -0.73612        3.20721
H         -2.20567       -2.66308       -0.52565
H         -2.99983       -4.70648        0.63139
C          4.06653       -0.20576       -1.60868
H          3.88341        0.87594        0.24816
C          4.54550       -1.16144        0.70534
H          4.74986       -0.74652        1.70331
C          3.77681       -2.50198        0.85281
H          5.53013       -1.32684        0.24403
C          1.78060       -2.26265        2.43598
H          1.68951       -3.00229        0.40879
H          4.14931       -3.06969        1.71762
H          3.97647       -3.13430       -0.02453
H          2.31764       -1.50785        3.01394
H          0.71621       -2.02631        2.49750
H          1.94011       -3.22908        2.92005
H          5.10875        0.05688       -1.80313
H          3.90327       -1.21386       -1.99292
H          3.43629        0.47108       -2.18799
Fe         0.82674        2.47749        0.76129
C          2.11001        3.16799       -0.64276
C          1.36458        4.26105       -0.04006
C         -0.05177        4.01616       -0.25642
C         -0.17836        2.76058       -0.97391
C          1.15352        2.24047       -1.21781
H          3.19819        3.07928       -0.68497
H          1.79547        5.13228        0.45913
H         -0.87478        4.66009        0.06232
H         -1.11352        2.30464       -1.30060
H          1.39039        1.33782       -1.78465
