171
-217.83832101
P         -1.47243        0.27416       -0.32985
P          1.71803       -0.63779       -0.13156
C         -0.71143        0.99427       -1.79415
C          0.99389       -1.73139       -1.38050
C          0.01771        0.18942       -2.65989
C          0.62476        0.77480       -3.78864
C          0.45047        2.12813       -4.02500
C         -0.27352        2.91224       -3.15334
C         -0.84387        2.34120       -2.03304
C          1.19152       -3.08126       -1.20661
C          0.56569       -3.99669       -2.02937
C         -0.29035       -3.55299       -3.01327
C         -0.51241       -2.20079       -3.20669
C          0.16683       -1.26650       -2.40080
Cl         1.36035       -0.51689        3.11251
Cl        -1.76778       -1.13343        2.67645
C         -1.48278       -1.77151       -4.25156
C          1.43540       -0.04142       -4.73431
H         -0.39205        3.96601       -3.34543
H         -1.38568        2.95707       -1.33569
H          1.84200       -3.42797       -0.42150
H          0.73184       -5.05248       -1.88966
H          0.89113        2.56775       -4.90351
H         -0.80081       -4.26071       -3.64462
C         -4.27090       -3.10970       -1.45780
C         -3.20481       -3.37101       -0.60639
C         -2.36563       -2.31586       -0.27515
C         -2.58997       -1.05686       -0.77432
C         -3.64259       -0.81965       -1.62262
C         -4.51003       -1.84373       -1.98039
H         -4.93297       -3.91687       -1.70870
H         -1.52592       -2.47269        0.37785
H         -3.78989        0.17075       -2.01460
C         -3.84519        3.55453        1.76826
C         -4.06110        3.30490        0.41990
C         -3.33442        2.28179       -0.17596
C         -2.40771        1.56168        0.53974
C         -2.20631        1.83652        1.87162
C         -2.92405        2.83436        2.51562
H         -4.41868        4.32362        2.25215
H         -3.47307        2.05644       -1.21820
H         -1.49431        1.25579        2.42538
C          5.11725       -2.67283        2.07495
C          3.82479       -3.15278        2.24390
C          2.80208       -2.51564        1.55384
C          3.06931       -1.44777        0.73371
C          4.35283       -0.98350        0.58353
C          5.40759       -1.59053        1.25359
H          5.91963       -3.14773        2.60911
H          1.77845       -2.82473        1.68093
H          4.52358       -0.13267       -0.05078
C          2.93788        3.54783       -1.34188
C          1.98899        3.39309       -0.33939
C          1.63002        2.09980        0.01578
C          2.17717        1.02042       -0.63678
C          3.10346        1.19142       -1.63570
C          3.51384        2.46820       -2.00018
H          3.24927        4.54090       -1.60884
H          0.91688        1.92746        0.80196
H          3.50443        0.31905       -2.12316
Pd        -0.05521       -0.49823        1.37022
C         -2.83329       -5.78588       -1.18488
C         -2.99951       -4.77989       -0.03177
C         -4.22555       -5.16022        0.81775
C         -1.74549       -4.85156        0.86378
H         -3.71671       -5.80994       -1.82166
H         -1.97967       -5.52014       -1.80687
H         -2.67042       -6.79345       -0.80270
H         -5.13472       -5.17042        0.21769
H         -4.10407       -6.14992        1.25762
H         -4.36727       -4.44516        1.62794
H         -1.60640       -5.85883        1.25585
H         -0.84792       -4.58877        0.30515
H         -1.83157       -4.17645        1.71501
C         -6.65674       -0.57008       -2.12430
C         -5.71629       -1.52889       -2.87734
C         -6.50150       -2.80255       -3.24484
C         -5.23809       -0.86298       -4.18183
H         -7.00367       -1.02194       -1.19524
H         -6.14969        0.36040       -1.87214
H         -7.53007       -0.32352       -2.72783
H         -5.86412       -3.51896       -3.76298
H         -6.91151       -3.28245       -2.35648
H         -7.33659       -2.56501       -3.90380
H         -4.56839       -1.52429       -4.73025
H         -6.08223       -0.62965       -4.83054
H         -4.70630        0.06699       -3.98499
C         -4.69202        5.63711       -0.25261
C         -5.07537        4.14938       -0.36403
C         -6.48036        3.92612        0.22316
C         -5.10094        3.76836       -1.85777
H         -5.37864        6.26072       -0.82487
H         -4.71734        5.97814        0.78158
H         -3.68520        5.80395       -0.63550
H         -7.22720        4.50460       -0.32034
H         -6.75882        2.87402        0.16398
H         -6.52281        4.22476        1.27001
H         -5.40189        2.73024       -1.99433
H         -5.81103        4.38982       -2.40318
H         -4.12122        3.90765       -2.31473
C         -2.43311        4.60238        4.23712
C         -2.75965        3.11375        4.01686
C         -1.62249        2.27214        4.63129
C         -4.07347        2.75944        4.73602
H         -3.22906        5.24519        3.86361
H         -2.30241        4.81887        5.29725
H         -1.51225        4.87539        3.72372
H         -1.83141        1.20590        4.54711
H         -0.67192        2.47701        4.13946
H         -1.50203        2.49908        5.69032
H         -3.99069        2.93159        5.80898
H         -4.90147        3.36115        4.36269
H         -4.32523        1.71059        4.58004
C          3.96493       -3.92335        4.62201
C          3.55351       -4.32675        3.19462
C          4.36924       -5.55122        2.74140
C          2.06041       -4.71297        3.20793
H          3.76514       -4.72859        5.32867
H          5.02703       -3.68707        4.67549
H          3.40977       -3.04315        4.94592
H          4.10614       -5.83232        1.72178
H          5.43896       -5.34716        2.76703
H          4.17834       -6.40777        3.38771
H          1.88442       -5.55500        3.87706
H          1.44370       -3.88382        3.55444
H          1.72130       -5.00463        2.21399
C          7.35982       -0.64297        2.50805
C          6.85334       -1.08978        1.12454
C          6.95638        0.10659        0.15749
C          7.74100       -2.22732        0.58725
H          7.35532       -1.46980        3.21730
H          8.37899       -0.26177        2.44630
H          6.72717        0.14731        2.91176
H          6.61744       -0.16784       -0.84101
H          6.35821        0.94773        0.50753
H          7.98771        0.44875        0.07286
H          8.77164       -1.89397        0.46671
H          7.74434       -3.08117        1.26369
H          7.38141       -2.57010       -0.38282
C          2.52966        5.33885        1.13813
C          1.40591        4.62661        0.36485
C          0.29232        4.24223        1.35777
C          0.80410        5.58656       -0.67850
H          2.14852        6.21471        1.66293
H          2.97284        4.66934        1.87513
H          3.32183        5.66858        0.46674
H          0.67486        3.60335        2.15319
H         -0.13007        5.13210        1.82328
H         -0.51831        3.71880        0.85256
H          0.00616        5.09784       -1.23564
H          0.38305        6.46918       -0.19729
H          1.55475        5.92390       -1.39182
C          4.02318        3.57723       -4.19453
C          4.59807        2.71078       -3.05967
C          5.10922        1.38905       -3.66508
C          5.78843        3.43591       -2.40459
H          3.18041        3.07761       -4.66988
H          3.67537        4.54013       -3.82248
H          4.77596        3.76730       -4.95938
H          5.54978        0.75108       -2.89965
H          4.30221        0.83996       -4.14817
H          5.87530        1.57864       -4.41681
H          5.49084        4.40447       -2.00455
H          6.19382        2.84522       -1.58330
H          6.58788        3.60439       -3.12590
H         -1.08122       -1.93837       -5.25194
H          1.95689       -0.84558       -4.21284
H         -1.73316       -0.71405       -4.15718
H         -2.41125       -2.33777       -4.16525
H          2.18703        0.56866       -5.23713
H          0.80464       -0.48947       -5.50280
