59
-75.80797003
Cl         1.71469        0.30434        2.28608
P          1.59630       -0.09317       -0.87872
P         -1.62191       -0.04528       -0.79111
C          0.57383        0.21449       -2.38657
H          0.33824        1.27939       -2.44914
H          1.16518       -0.04204       -3.27117
C         -0.68192       -0.60182       -2.27913
H         -0.44487       -1.66260       -2.16239
H         -1.32454       -0.50001       -3.15922
C          2.64982       -1.58987       -1.20583
H          2.57662       -1.72816       -2.29327
C          2.93872        1.16125       -0.61344
H          2.96735        1.34702        0.46704
C         -3.02516       -1.18116       -0.37864
H         -3.19774       -1.03602        0.69548
C         -2.64696        1.42986       -1.25048
H         -2.08503        2.01952       -1.98519
C          4.07052       -1.11404       -0.85865
H          4.29606       -1.36631        0.18467
H          4.81479       -1.65839       -1.45956
C          4.21247        0.41891       -1.05322
H          4.40224        0.63855       -2.11286
H          5.08827        0.80560       -0.51016
C         -4.20855       -0.61620       -1.19692
H         -4.50907       -1.35602       -1.95213
H         -5.08717       -0.50190       -0.54507
C         -3.87482        0.74334       -1.88527
H         -4.74223        1.41927       -1.84768
H         -3.68319        0.57483       -2.95621
C          2.19474       -2.86952       -0.50370
H          2.81834       -3.70436       -0.85262
H          1.17997       -3.11277       -0.84447
C          2.69466        2.47116       -1.35312
H          3.61050        3.07767       -1.31974
H          2.53253        2.25417       -2.41684
C         -2.71106       -2.64624       -0.65286
H         -3.63199       -3.23721       -0.55056
H         -2.41467       -2.75647       -1.70382
C         -3.01231        2.28884       -0.04111
H         -3.85315        2.94314       -0.31073
H         -3.40080        1.63245        0.74865
C          2.22798       -2.82038        1.01645
H          1.81887       -3.73033        1.46186
H          1.64768       -1.98423        1.40320
H          3.24327       -2.70799        1.39873
C          1.52901        3.26301       -0.78342
H          0.60640        2.68391       -0.81639
H          1.35465        4.19187       -1.33119
H          1.70294        3.52427        0.26221
C         -1.63630       -3.19947        0.26916
H         -0.71561       -2.62185        0.18989
H         -1.39432       -4.24053        0.04374
H         -1.94961       -3.15206        1.31385
C         -1.86505        3.13226        0.49134
H         -1.47740        3.80246       -0.27802
H         -2.17185        3.74961        1.33869
H         -1.03711        2.51156        0.83234
Cl        -1.54722        0.25041        2.41552
Pd         0.02510        0.05159        0.82877
