111
-148.55072222
P         -2.22276        2.21316        1.29250
P          0.11999        0.23341        0.46625
C         -1.16671        1.48631        2.56937
C         -0.17511        0.60140        2.20854
C         -2.40458        4.03513        1.54890
C         -2.03238        4.78659        0.28953
C         -1.36624        1.79432        3.89982
H         -2.13129        2.50269        4.17300
C         -0.58311        1.19445        4.87079
H         -0.73896        1.43309        5.91019
C          0.39121        0.28411        4.50925
H          0.99478       -0.19095        5.26504
C          0.59364       -0.01534        3.17398
H          1.34442       -0.73098        2.87651
Pd        -1.50985        1.38589       -0.74528
Cl        -3.29098        2.38769       -1.66536
Cl        -0.77282        0.24097       -2.53375
C         -3.88459        4.18812        1.95703
C         -3.99637        1.68521        1.41299
H         -2.12846        5.86682        0.42318
H         -1.00424        4.57232       -0.01252
H         -2.68451        4.49706       -0.53641
H         -4.26398        5.15788        1.60331
H         -3.96973        4.21954        3.05319
H         -4.20985        1.10862        0.50269
C         -4.75819        3.02609        1.40675
C         -4.25169        0.83984        2.64324
H         -1.73282        4.30906        2.37385
H         -5.68447        2.92593        1.99107
H         -5.07814        3.26718        0.38232
H         -5.28352        0.48223        2.67658
H         -3.59087       -0.02931        2.67513
H         -4.07744        1.41814        3.55168
C         -1.15090       -4.06958       -0.29004
C         -2.10506       -3.09275        0.09433
C         -1.65921       -1.80593        0.34760
C         -0.34768       -1.46227        0.14752
C          0.55575       -2.37308       -0.33281
C          0.17779       -3.67880       -0.59696
O         -1.51396       -5.44204       -0.33116
C         -3.60151       -3.40675        0.24588
H         -2.33503       -1.04781        0.70517
H          1.56764       -2.04816       -0.49831
C          1.20740       -4.65171       -1.19248
C          4.43645        1.00945       -0.81433
C          4.05464        1.24604        0.53052
C          2.74141        0.99886        0.89371
C          1.81001        0.59749       -0.02954
C          2.15478        0.47897       -1.35054
C          3.44740        0.71282       -1.78552
O          5.80838        1.04094       -1.18109
C          5.04906        1.73109        1.59742
H          2.42942        1.11601        1.91521
H          1.38317        0.20664       -2.04723
C          3.75967        0.63038       -3.28839
C         -3.89242       -3.80645        1.70007
C         -4.45279       -2.16584       -0.10810
C         -4.03417       -4.53199       -0.71159
C          1.96161       -5.35500       -0.05432
C          0.52557       -5.69245       -2.09932
C          2.22892       -3.89228       -2.06891
C         -1.33785       -6.12273        0.90476
H         -3.61936       -3.00201        2.38272
H         -4.95079       -4.02423        1.84097
H         -3.32590       -4.68966        1.98626
H         -4.17427       -1.77005       -1.08450
H         -5.51252       -2.41787       -0.13795
H         -4.33440       -1.37389        0.62865
H         -3.53693       -5.46895       -0.47379
H         -5.10843       -4.70520       -0.65323
H         -3.78703       -4.27480       -1.74104
H          2.46987       -4.62758        0.57825
H          1.28179       -5.92399        0.57552
H          2.71030       -6.04196       -0.44806
H          1.26155       -6.33903       -2.57653
H         -0.15234       -6.32729       -1.53406
H         -0.05165       -5.19992       -2.88112
H          2.86955       -3.24425       -1.47252
H          2.88073       -4.58845       -2.59625
H          1.71804       -3.28222       -2.81339
H         -0.92341       -5.44814        1.65500
H         -2.29698       -6.50648        1.25193
H         -0.66351       -6.96720        0.76306
C          6.46384       -0.21747       -1.08598
C          6.11685        2.65288        0.98062
C          4.32431        2.55010        2.68998
C          5.71659        0.51627        2.25953
C          2.52029        1.02204       -4.12547
C          4.88706        1.60557       -3.67325
C          4.15753       -0.80827       -3.65002
H          6.78264        3.04921        1.74686
H          6.72926        2.12150        0.25636
H          5.64896        3.49365        0.46958
H          3.66258        1.92681        3.28969
H          5.04210        3.00287        3.37365
H          3.73389        3.35136        2.24633
H          6.42015        0.82933        3.03055
H          4.97018       -0.12744        2.72450
H          6.26021       -0.08052        1.53118
H          2.77361        1.09157       -5.18300
H          1.72343        0.28528       -4.03625
H          2.12929        1.98911       -3.81063
H          5.06403        1.59564       -4.74844
H          4.63020        2.62320       -3.38096
H          5.82204        1.34428       -3.18394
H          4.38876       -0.89445       -4.71139
H          3.34543       -1.49845       -3.42570
H          5.03078       -1.13054       -3.08818
H          7.30197       -0.14113       -0.39352
H          5.77040       -0.98293       -0.73525
H          6.85532       -0.50080       -2.06284
