111
-148.55473325
P         -2.50202        2.12226        0.85145
P          0.11373        0.36046        0.53462
C         -1.44289        1.81589        2.28991
C         -0.29342        1.07091        2.14033
C         -3.20299        3.83461        0.85643
C         -2.55605        4.69186       -0.20952
C         -1.78850        2.30630        3.53282
H         -2.69898        2.87126        3.64840
C         -0.97237        2.05626        4.62268
H         -1.24090        2.43910        5.59373
C          0.18347        1.31488        4.46828
H          0.81788        1.11918        5.31703
C          0.52240        0.81719        3.22280
H          1.41510        0.22687        3.08600
Pd        -1.32041        1.36416       -0.97739
Cl        -2.98942        2.11091       -2.27500
Cl         0.11365        0.86270       -2.63170
C         -4.71111        3.59080        0.65754
C         -4.06090        1.12631        0.88142
H         -2.71579        4.26374       -1.20031
H         -2.97130        5.70239       -0.21610
H         -1.47683        4.76851       -0.05648
H         -4.94205        3.67141       -0.41362
H         -5.29632        4.38448        1.14635
H         -4.18537        0.72558       -0.13357
C         -5.13906        2.18636        1.17221
C         -3.98017        0.00487        1.89471
H         -3.01003        4.24809        1.85451
H         -5.30993        2.22922        2.25673
H         -6.10192        1.88342        0.73330
H         -3.16363       -0.68133        1.65903
H         -3.79763        0.39920        2.89604
H         -4.90761       -0.57147        1.92835
C         -1.19218       -3.98954        0.20396
C         -1.15380       -3.37126        1.48072
C         -0.73553       -2.05336        1.56036
C         -0.43778       -1.34017        0.42937
C         -0.58410       -1.89953       -0.81245
C         -0.99540       -3.21117       -0.96507
O         -1.38828       -5.39237        0.10065
C         -1.52619       -4.11943        2.77027
H         -0.62849       -1.56537        2.51284
H         -0.36389       -1.28559       -1.66889
C         -1.19301       -3.76548       -2.38419
C          4.47059        0.83187       -0.69810
C          3.81232       -0.40963       -0.88797
C          2.48829       -0.51295       -0.49865
C          1.84394        0.52900        0.11468
C          2.50478        1.69680        0.39218
C          3.83442        1.86417        0.03903
O          5.74556        1.05656       -1.28191
C          4.48534       -1.62086       -1.55185
H          1.93199       -1.41307       -0.69056
H          1.95965        2.48504        0.88250
C          4.55269        3.16584        0.42803
C         -2.07676       -3.14068        3.83253
C         -2.62898       -5.16065        2.50602
C         -0.27536       -4.80626        3.33865
C          0.14285       -4.31950       -2.90269
C         -2.27099       -4.86398       -2.40843
C         -1.66893       -2.64753       -3.34091
C         -0.18169       -6.14510        0.10223
H         -2.44981       -3.68312        4.70097
H         -1.30804       -2.45696        4.18953
H         -2.89982       -2.55223        3.42848
H         -2.93920       -5.64638        3.43085
H         -3.50391       -4.68815        2.06074
H         -2.28651       -5.93680        1.82598
H         -0.50578       -5.33323        4.26422
H          0.13219       -5.52757        2.63445
H          0.50309       -4.07391        3.55151
H          0.51784       -5.11191       -2.25903
H          0.03367       -4.72452       -3.90837
H          0.89781       -3.53440       -2.93614
H         -1.97343       -5.72601       -1.81694
H         -3.20971       -4.48872       -2.00226
H         -2.45533       -5.20994       -3.42518
H         -1.93686       -3.05866       -4.31379
H         -2.54547       -2.14020       -2.93879
H         -0.89260       -1.90348       -3.51224
H         -0.08595       -6.68801       -0.83784
H          0.67810       -5.48609        0.22998
H         -0.20689       -6.87173        0.91424
C          5.68921        1.59834       -2.59565
C          5.99853       -1.64279       -1.27083
C          3.90523       -2.94088       -0.99289
C          4.22614       -1.57340       -3.06546
C          6.05572        2.92432        0.65837
C          4.34815        4.21013       -0.67979
C          3.98088        3.72816        1.74954
H          6.18959       -1.63231       -0.19829
H          6.46193       -2.53580       -1.68952
H          6.49610       -0.77991       -1.70601
H          4.46460       -3.79815       -1.36678
H          3.95662       -2.95645        0.09545
H          2.86724       -3.08479       -1.28843
H          4.63772       -0.66889       -3.50715
H          4.67722       -2.42936       -3.56667
H          3.15630       -1.58489       -3.27302
H          6.55063        2.60259       -0.25452
H          6.55120        3.83335        0.99845
H          6.20924        2.15211        1.41142
H          4.75874        3.86630       -1.62612
H          3.28731        4.40793       -0.83159
H          4.83428        5.15124       -0.42400
H          3.99477        2.96933        2.53154
H          2.95684        4.07853        1.62993
H          4.57039        4.57669        2.09610
H          4.65272        1.75537       -2.89717
H          6.22406        2.54758       -2.62298
H          6.17106        0.91539       -3.29504
