58
-89.85959003
P          1.65345       -0.26602        0.73911
C          2.28376        1.36480        1.13824
C          2.77058        1.65335        2.39265
C          3.25228        2.92130        2.66466
C          3.25049        3.88640        1.67634
C          2.77787        3.58600        0.41394
C          2.29770        2.31750        0.14486
H          1.96001        2.05020       -0.84405
H          2.78319        0.88531        3.14897
C          2.94572       -1.31730        0.07443
C          2.62332       -2.58063       -0.36560
C          3.60802       -3.39326       -0.89893
C          4.90676       -2.93214       -0.98880
C          5.22368       -1.66179       -0.54920
C          4.23717       -0.85143       -0.01689
H          4.46605        0.14593        0.32223
H          1.60222       -2.92238       -0.29905
C          0.81146       -1.12927        2.12913
C         -0.03950       -0.22496        3.00874
C         -0.86048        0.80045        2.24099
P         -1.64977        0.14909        0.71476
C         -2.46610       -1.43470        0.91880
C         -2.59758       -2.23945       -0.18995
C         -3.22528       -3.46661       -0.08134
C         -3.72617       -3.87387        1.13940
C         -3.60915       -3.05480        2.24558
C         -2.98033       -1.82771        2.13336
H         -2.90101       -1.17066        2.98405
H         -2.23146       -1.88458       -1.14051
C         -2.78578        1.38098        0.07429
C         -2.30519        2.62740       -0.25629
C         -3.16730        3.58076       -0.76843
C         -4.50268        3.27632       -0.94649
C         -4.97844        2.02257       -0.61596
C         -4.11439        1.07130       -0.10457
H         -4.46781        0.08518        0.14987
H         -1.25736        2.84629       -0.12155
Pd         0.01576       -0.04289       -0.89770
Cl         1.68293       -0.04093       -2.40110
Cl        -1.59460        0.10264       -2.45503
H         -1.64525        1.23733        2.86305
H         -0.23101        1.62839        1.90793
H         -0.70338       -0.84737        3.62656
H          0.60063        0.29851        3.73411
H          0.19605       -1.89962        1.65875
H          1.57562       -1.65186        2.70948
H          3.63100        3.15411        3.64634
H          2.78915        4.33407       -0.36160
H          3.35963       -4.38210       -1.24785
H          6.23598       -1.30008       -0.62434
H         -3.32766       -4.09863       -0.94809
H         -4.00983       -3.36938        3.19522
H         -2.79526        4.55713       -1.03205
H         -6.01927        1.78339       -0.75987
H          3.62650        4.87398        1.88855
H          5.67377       -3.56358       -1.40676
H         -4.21636       -4.82975        1.22741
H         -5.17429        4.01754       -1.34803
