72
-108.40380506
Cl        -1.80060        0.76881        2.69018
Cl         0.96385       -0.90393        2.74959
P          1.11449       -1.12243       -0.29374
P         -2.24847        0.11016       -0.38323
C         -3.24372       -1.48898       -0.15763
C         -3.61494       -1.64959        1.31796
C         -4.50024       -1.44607       -1.01983
C         -3.33211        1.65731       -0.12800
C         -4.13149        1.96370       -1.40169
C         -1.45360        0.41020       -2.06743
C         -1.49827       -0.75599       -3.03291
C          1.12609        0.23829       -1.49995
C         -0.04600        0.96663       -1.98163
C          0.45957        2.08557       -2.77782
C          1.90668        1.99688       -2.83903
C          2.31819        0.83501       -2.07437
C         -2.37706       -2.67696       -0.55095
H         -2.73081       -1.62061        1.95482
H         -4.29899       -0.87753        1.65933
H         -5.19044       -0.67423       -0.68358
H         -5.03193       -2.39770       -0.96993
C         -4.30486        1.51029        1.03837
H         -4.60793        1.07207       -1.80547
H         -3.50885        2.40057       -2.18173
H         -2.06926        1.20797       -2.49252
H         -0.83964       -1.55321       -2.69725
H         -1.14202       -0.45821       -4.02122
H         -2.50337       -1.15753       -3.15596
H         -0.15938        2.78972       -3.33717
H          2.56816        2.66319       -3.39759
Pd        -0.50759       -0.24992        1.17890
H          3.34062        0.49953       -1.88864
C         -2.36606        2.79856        0.15360
H         -4.91718        2.69171       -1.19282
H         -4.79431        2.46258        1.24749
H         -5.09269        0.79302        0.81609
H         -3.79514        1.20469        1.94946
H         -1.59717        2.85968       -0.61790
H         -2.89013        3.75590        0.18415
H         -1.88118        2.65960        1.11863
H         -4.10822       -2.60831        1.48624
H         -4.26258       -1.25559       -2.06530
H         -1.45189       -2.67634        0.02259
H         -2.89105       -3.61707       -0.34331
H         -2.13204       -2.67632       -1.60981
C          2.79463       -1.22016        0.38223
C          3.25990       -2.22890        1.18885
C          4.58663       -1.92925        1.49761
C          4.87934       -0.74806        0.86224
O          3.78865       -0.30256        0.17324
H          2.69645       -3.08009        1.53321
H          5.25051       -2.50982        2.11713
H          5.83028       -0.23077        0.89438
C          0.74549       -2.72714       -1.02665
C          0.64946       -3.88317       -0.29170
C          0.36094       -4.91399       -1.18709
C          0.29427       -4.34248       -2.43406
O          0.52524       -2.99898       -2.34933
H          0.75619       -3.96629        0.77798
H          0.21801       -5.95477       -0.94649
H          0.08752       -4.86590       -3.35930
Fe         1.29727        2.15333       -0.90233
C          2.99374        2.78698        0.08962
C          2.16034        1.99373        0.97123
C          0.86538        2.63275        1.05481
C          0.88967        3.81644        0.21571
C          2.21260        3.92004       -0.37344
H          4.03439        2.57355       -0.16431
H          2.45282        1.07721        1.48683
H          0.04740        2.29974        1.69566
H          0.07894        4.53911        0.09816
H          2.56214        4.71509       -1.03590
