171
-217.84676494
P         -1.60680        0.38900       -0.36754
P          1.59882       -0.44345       -0.28481
C         -0.86187        1.28501       -1.73224
C          0.88124       -1.43932       -1.59770
C         -0.06594        0.62173       -2.65882
C          0.56712        1.37254       -3.66800
C          0.34942        2.73891       -3.73212
C         -0.46647        3.37295       -2.81894
C         -1.06420        2.64081       -1.81177
C          1.06258       -2.80024       -1.54934
C          0.46399       -3.61623       -2.48864
C         -0.33099       -3.05913       -3.46759
C         -0.52706       -1.68980       -3.53493
C          0.10477       -0.85558       -2.59261
Cl         1.53096        0.28105        2.89049
Cl        -1.64764       -0.37577        2.84048
C         -1.39983       -1.12956       -4.60325
C          1.44768        0.72161       -4.67663
H         -0.63426        4.43530       -2.88791
H         -1.69339        3.12790       -1.08418
H          1.67549       -3.22866       -0.77328
H          0.61344       -4.68291       -2.45152
H          0.82839        3.30765       -4.51124
H         -0.81363       -3.69156       -4.19358
C         -3.92697       -3.28840       -1.60079
C         -2.92985       -3.41431       -0.64205
C         -2.22744       -2.27100       -0.28408
C         -2.50205       -1.06994       -0.88847
C         -3.47742       -0.96455       -1.84935
C         -4.21849       -2.08024       -2.22194
H         -4.50844       -4.15472       -1.85680
H         -1.46705       -2.30455        0.47649
H         -3.66012       -0.00154       -2.29511
C         -4.30503        3.03176        2.14823
C         -4.87762        2.03240        1.37103
C         -4.03262        1.24687        0.59782
C         -2.67856        1.47135        0.59301
C         -2.13150        2.47212        1.35745
C         -2.93498        3.26600        2.16469
H         -4.94877        3.63089        2.76431
H         -4.42389        0.43994        0.00489
H         -1.06462        2.61889        1.34569
C          4.46181       -2.82658        2.30936
C          3.11222       -3.16199        2.32263
C          2.25477       -2.44488        1.49858
C          2.72945       -1.42215        0.71622
C          4.06184       -1.09445        0.72859
C          4.95932       -1.79419        1.52238
H          5.13995       -3.37695        2.93239
H          1.20222       -2.67174        1.48089
H          4.40575       -0.27419        0.12335
C          3.84288        3.26440       -1.56693
C          2.85816        3.38093       -0.59310
C          2.14904        2.23724       -0.25191
C          2.43340        1.03544       -0.85099
C          3.41444        0.93418       -1.80623
C          4.14306        2.05585       -2.18419
H          4.40862        4.13311       -1.84580
H          1.37692        2.27727        0.49665
H          3.61565       -0.03148       -2.23823
Pd        -0.04257       -0.01299        1.31399
C         -2.42617       -5.83961       -1.06512
C         -2.66352       -4.77249        0.02019
C         -3.88181       -5.16171        0.87529
C         -1.41843       -4.72104        0.92652
H         -1.59559       -5.55430       -1.70960
H         -2.18938       -6.80460       -0.61731
H         -3.30603       -5.97344       -1.69289
H         -3.72195       -6.11942        1.37025
H         -4.06791       -4.41076        1.64295
H         -4.78022       -5.24491        0.26448
H         -1.20972       -5.70115        1.35505
H         -0.54153       -4.41043        0.35948
H         -1.56078       -4.02552        1.75321
C         -5.19075       -3.06367       -4.32675
C         -5.37437       -1.99772       -3.22930
C         -5.44158       -0.61302       -3.90282
C         -6.69977       -2.24762       -2.48728
H         -5.98686       -2.99854       -5.06826
H         -4.24082       -2.93146       -4.84264
H         -5.20851       -4.07068       -3.91232
H         -6.24529       -0.57934       -4.63823
H         -5.63448        0.17157       -3.17151
H         -4.51022       -0.38223       -4.41914
H         -6.71118       -3.23383       -2.02425
H         -6.84630       -1.50822       -1.70056
H         -7.54736       -2.18738       -3.16973
C         -6.82247        0.67687        0.44541
C         -6.39505        1.80221        1.40887
C         -7.11932        3.09647        0.99483
C         -6.81017        1.40646        2.83738
H         -7.90272        0.53443        0.47108
H         -6.54499        0.91480       -0.58135
H         -6.35952       -0.27123        0.71862
H         -6.81496        3.40411       -0.00545
H         -8.19985        2.95401        0.98995
H         -6.89510        3.91370        1.67924
H         -7.88177        1.21614        2.89422
H         -6.28874        0.50264        3.15204
H         -6.57246        2.19462        3.55085
C         -1.54258        5.35072        2.19084
C         -2.28097        4.32292        3.06568
C         -1.27813        3.62807        4.00741
C         -3.32221        5.06685        3.92329
H         -2.23067        5.83355        1.49721
H         -1.07841        6.12427        2.80237
H         -0.75854        4.87335        1.60674
H         -1.77977        2.87479        4.61435
H         -0.48738        3.12921        3.44856
H         -0.80875        4.34707        4.67839
H         -2.83956        5.80768        4.56064
H         -4.04404        5.59108        3.29726
H         -3.86179        4.37621        4.57108
C          2.11004       -5.45308        2.29349
C          2.54612       -4.28841        3.19875
C          1.33322       -3.76233        3.99275
C          3.59071       -4.80750        4.20572
H          1.68030       -6.26539        2.87935
H          1.36409       -5.12751        1.57044
H          2.96010       -5.84839        1.73770
H          1.61279       -2.89564        4.59128
H          0.52040       -3.46256        3.33317
H          0.94553       -4.52727        4.66517
H          3.15819       -5.57122        4.85198
H          4.44254       -5.25629        3.69540
H          3.95356       -4.00055        4.84215
C          7.28190       -2.26480        2.45459
C          6.43997       -1.38872        1.50768
C          6.56586        0.07957        1.95677
C          6.99252       -1.54037        0.07805
H          8.32906       -1.96328        2.43117
H          6.93584       -2.17406        3.48403
H          7.23459       -3.31416        2.16411
H          6.15047        0.21283        2.95541
H          7.60941        0.39296        1.97938
H          6.03241        0.74816        1.28193
H          8.04742       -1.26981        0.03621
H          6.89333       -2.56970       -0.26595
H          6.45698       -0.90115       -0.62275
C          3.62669        5.76643       -0.15362
C          2.52426        4.71656        0.08688
C          2.38504        4.51035        1.60912
C          1.20071        5.24580       -0.48713
H          4.59519        5.39900        0.18543
H          3.70461        6.02437       -1.20940
H          3.40993        6.68584        0.39021
H          3.29451        4.07566        2.02318
H          2.20319        5.45818        2.11542
H          1.55673        3.84690        1.85184
H          0.90987        6.18068       -0.00844
H          1.29246        5.42776       -1.55760
H          0.39914        4.52357       -0.33974
C          6.61785        2.29037       -2.46204
C          5.29836        1.97995       -3.19247
C          5.07480        3.00841       -4.31734
C          5.40951        0.57961       -3.82695
H          6.60382        3.29106       -2.03142
H          6.78564        1.58103       -1.65177
H          7.46562        2.23105       -3.14434
H          5.86609        2.94606       -5.06422
H          4.12406        2.83341       -4.81921
H          5.06540        4.02656       -3.93064
H          5.62087       -0.17841       -3.07316
H          4.48899        0.30677       -4.34163
H          6.21803        0.54925       -4.55721
H         -1.69986       -0.10514       -4.37887
H          2.30800        1.35082       -4.90589
H         -2.30903       -1.72142       -4.70907
H         -0.88698       -1.12957       -5.56601
H          0.90809        0.54292       -5.60757
H          1.82600       -0.23574       -4.31554
