171
-217.83457063
P         -1.45836        0.22325       -0.39485
P          1.66282       -0.73314        0.36827
C         -0.43929        1.03524       -1.64405
C          1.02104       -1.73553       -0.99394
C          0.43490        0.25050       -2.38553
C          1.26797        0.86239       -3.34124
C          1.16086        2.22808       -3.54833
C          0.27405        2.98991       -2.81624
C         -0.52085        2.38964       -1.85959
C          1.02090       -3.08962       -0.75426
C          0.48444       -3.96180       -1.68149
C         -0.06927       -3.46428       -2.84137
C         -0.09101       -2.10363       -3.09706
C          0.47458       -1.21668       -2.16175
Cl         0.68238       -1.06580        3.39920
Cl        -2.31745       -1.55981        2.37291
C         -0.73802       -1.61661       -4.34629
C          2.24143        0.05559       -4.12830
H          0.20702        4.05202       -2.98608
H         -1.19573        2.98490       -1.26948
H          1.43333       -3.46135        0.17231
H          0.48905       -5.02280       -1.49238
H          1.78227        2.69589       -4.29291
H         -0.50514       -4.13651       -3.56126
C         -4.35672       -2.52908       -2.52998
C         -3.76985       -2.97189       -1.35035
C         -2.89223       -2.11575       -0.70165
C         -2.59982       -0.88297       -1.22530
C         -3.17751       -0.46555       -2.39933
C         -4.07586       -1.28248       -3.07635
H         -5.06622       -3.15958       -3.03139
H         -2.45577       -2.40158        0.23826
H         -2.91132        0.50113       -2.79019
C         -4.08779        3.31889        1.67047
C         -3.31680        2.48481        2.46816
C         -2.50704        1.55169        1.83597
C         -2.47723        1.44927        0.46491
C         -3.27448        2.26447       -0.30181
C         -4.08499        3.22836        0.28504
H         -4.71742        4.05110        2.14154
H         -1.90992        0.88456        2.42679
H         -3.26309        2.14189       -1.37034
C          5.59580       -2.61733        1.60124
C          4.70815       -2.24728        2.60385
C          3.49575       -1.68992        2.22161
C          3.18971       -1.52377        0.89534
C          4.07568       -1.90389       -0.08350
C          5.30655       -2.45390        0.25245
H          6.54092       -3.04650        1.87920
H          2.76940       -1.39059        2.95364
H          3.79486       -1.76768       -1.11426
C          2.85647        3.60572       -0.20691
C          3.62896        2.59728       -0.76785
C          3.20002        1.28837       -0.59929
C          2.05725        1.00552        0.10782
C          1.31346        2.01663        0.67248
C          1.69539        3.34379        0.51020
H          3.17284        4.62640       -0.31039
H          3.78237        0.47715       -1.00041
H          0.43258        1.76652        1.23523
Pd        -0.40849       -0.82557        1.45216
C         -4.69700       -4.14571        0.65992
C         -4.06741       -4.34438       -0.73148
C         -2.75159       -5.13330       -0.59614
C         -5.04086       -5.16349       -1.59999
H         -4.93642       -5.10378        1.12069
H         -4.02051       -3.61446        1.32838
H         -5.61676       -3.56589        0.58678
H         -2.28245       -5.26688       -1.57054
H         -2.04277       -4.61423        0.04805
H         -2.92955       -6.11976       -0.16863
H         -6.00028       -4.65623       -1.69953
H         -4.63156       -5.32983       -2.59633
H         -5.22956       -6.13962       -1.15327
C         -4.72717       -1.89105       -5.43832
C         -4.80588       -0.81002       -4.34265
C         -4.18759        0.48680       -4.90276
C         -6.27924       -0.54115       -3.98932
H         -5.21690       -1.55297       -6.35145
H         -3.69136       -2.12358       -5.68204
H         -5.21504       -2.81375       -5.12779
H         -4.68469        0.78481       -5.82579
H         -4.29029        1.31081       -4.19742
H         -3.12926        0.35224       -5.12456
H         -6.35608        0.22052       -3.21343
H         -6.83384       -0.19386       -4.86086
H         -6.76394       -1.44433       -3.61961
C         -4.84719        2.18560        4.42314
C         -3.41796        2.56840        3.99869
C         -3.10513        4.00142        4.46732
C         -2.42910        1.60620        4.68823
H         -4.95474        2.21636        5.50721
H         -5.58138        2.86657        3.99392
H         -5.08972        1.17741        4.08762
H         -2.09411        4.28954        4.18289
H         -3.79556        4.72318        4.03300
H         -3.18171        4.08045        5.55163
H         -2.49894        1.69140        5.77239
H         -2.64108        0.56957        4.42723
H         -1.40068        1.82938        4.40529
C         -4.84661        3.87544       -2.05576
C         -4.94228        4.18973       -0.54941
C         -4.44891        5.62931       -0.31687
C         -6.41660        4.06637       -0.12216
H         -3.82295        3.97884       -2.41545
H         -5.18739        2.86175       -2.26574
H         -5.46834        4.55889       -2.63388
H         -3.40089        5.72688       -0.60034
H         -5.02673        6.34062       -0.90671
H         -4.53870        5.91256        0.73133
H         -6.55233        4.33925        0.92355
H         -7.05166        4.71934       -0.72064
H         -6.76911        3.04302       -0.25000
C          6.35731       -1.65062        4.39581
C          5.08456       -2.45642        4.07750
C          5.33952       -3.95383        4.32957
C          3.96060       -1.98776        5.02285
H          7.19803       -1.98093        3.78687
H          6.19946       -0.58998        4.20101
H          6.63907       -1.76362        5.44255
H          5.58893       -4.13662        5.37464
H          4.45397       -4.54057        4.08609
H          6.16372       -4.32374        3.72085
H          3.03910       -2.54054        4.84151
H          4.23993       -2.14498        6.06448
H          3.75610       -0.92525        4.89324
C          7.64434       -2.09174       -0.58230
C          6.33305       -2.86616       -0.81175
C          5.82991       -2.55598       -2.23585
C          6.59558       -4.37896       -0.70331
H          8.07267       -2.31641        0.39373
H          8.38620       -2.34854       -1.33828
H          7.47039       -1.01709       -0.63208
H          5.63665       -1.49048       -2.35999
H          6.57203       -2.84518       -2.97983
H          4.91285       -3.10203       -2.45646
H          7.31012       -4.70631       -1.45835
H          6.99903       -4.64109        0.27412
H          5.67237       -4.94044       -0.84565
C          5.23650        4.37600       -1.62429
C          4.95862        2.86701       -1.48677
C          4.91977        2.25095       -2.89645
C          6.10102        2.22533       -0.67730
H          5.32121        4.85116       -0.64720
H          6.17203        4.54983       -2.15587
H          4.44167        4.87040       -2.18270
H          4.77635        1.17222       -2.85354
H          4.10500        2.67904       -3.47889
H          5.85070        2.44016       -3.43065
H          5.96362        1.14815       -0.58847
H          7.06525        2.40160       -1.15364
H          6.13965        2.64021        0.32969
C          0.57322        5.55205        0.05369
C          0.92146        4.51332        1.13731
C          1.79625        5.16805        2.22132
C         -0.39193        4.04595        1.78552
H          1.46844        5.96292       -0.41075
H         -0.03565        5.10279       -0.72958
H          0.01008        6.38267        0.47892
H          2.05845        4.44382        2.99240
H          2.72219        5.55697        1.79899
H          1.27211        5.99559        2.69912
H         -0.93886        4.89161        2.20151
H         -1.03686        3.56899        1.05001
H         -0.20454        3.34044        2.59431
H         -0.17070       -1.92356       -5.22614
H          2.72054       -0.69806       -3.50113
H         -0.82225       -0.52949       -4.35968
H         -1.74433       -2.02595       -4.43822
H          3.02681        0.68190       -4.55308
H          1.74707       -0.45768       -4.95355
