111
-148.55064715
P         -2.54677        2.12304        0.87100
P          0.09460        0.40234        0.53227
C         -1.50490        1.76174        2.31516
C         -0.33723        1.04833        2.15454
C         -3.39873        3.75445        1.08942
C         -3.17803        4.66602       -0.09715
C         -1.87921        2.18658        3.57447
H         -2.80182        2.72831        3.70244
C         -1.07654        1.90230        4.66594
H         -1.36923        2.23433        5.64866
C          0.09677        1.19217        4.49856
H          0.72041        0.96915        5.34857
C          0.46590        0.75971        3.23755
H          1.37053        0.19070        3.08896
Pd        -1.25757        1.52826       -0.96366
Cl        -2.84161        2.44225       -2.25740
Cl         0.11693        0.89806       -2.62633
C         -4.87233        3.34911        1.30214
C         -4.01100        0.99886        0.74058
H         -3.61424        4.23438       -0.99875
H         -3.64215        5.64331        0.05513
H         -2.11349        4.82141       -0.28706
H         -5.53005        4.13615        0.90521
H         -5.09434        3.29364        2.37801
H         -3.89092        0.42686       -0.18991
C         -5.19643        1.98043        0.63980
C         -4.07824        0.06523        1.92935
H         -2.97775        4.21050        1.99547
H         -6.08786        1.52858        1.09882
H         -5.45631        2.14212       -0.41677
H         -4.93381       -0.61103        1.86193
H         -3.17283       -0.54086        2.00544
H         -4.17431        0.63044        2.85829
C         -1.16946       -3.94672        0.05863
C         -1.18461       -3.35855        1.34995
C         -0.79270       -2.03581        1.47373
C         -0.47349       -1.28936        0.37006
C         -0.56894       -1.82206       -0.88778
C         -0.95018       -3.13684       -1.08447
O         -1.32918       -5.35057       -0.08556
C         -1.57383       -4.14614        2.61079
H         -0.71371       -1.57329        2.44147
H         -0.32139       -1.18778       -1.72106
C         -1.07708       -3.66475       -2.52131
C          4.49419        0.71189       -0.59380
C          3.86744       -0.55815       -0.52316
C          2.52833       -0.60720       -0.17716
C          1.83802        0.52870        0.15552
C          2.46271        1.74738        0.18377
C          3.80287        1.86828       -0.14819
O          5.79898        0.82866       -1.14274
C          4.59678       -1.86891       -0.85727
H          1.99629       -1.54223       -0.18185
H          1.87986        2.61042        0.45643
C          4.47196        3.24903       -0.06038
C         -0.31804       -4.79795        3.20898
C         -2.19680       -3.21024        3.67133
C         -2.62816       -5.22126        2.28998
C          0.28962       -4.18627       -2.99090
C         -2.13400       -4.77985       -2.61383
C         -1.52953       -2.53534       -3.47584
C         -0.10664       -6.07660       -0.05041
H          0.42272       -4.04152        3.46733
H         -0.56058       -5.35603        4.11296
H          0.14313       -5.48520        2.50369
H         -2.57030       -3.78312        4.51982
H         -1.47034       -2.49913        4.06153
H         -3.03364       -2.65284        3.25224
H         -2.23448       -5.97291        1.61033
H         -2.95337       -5.73379        3.19498
H         -3.50322       -4.77241        1.82108
H          0.23470       -4.56136       -4.01248
H          1.03454       -3.39143       -2.96279
H          0.64401       -4.99359       -2.35430
H         -2.26807       -5.10827       -3.64418
H         -1.84748       -5.64854       -2.02655
H         -3.09574       -4.42809       -2.24192
H         -1.74788       -2.93075       -4.46745
H         -2.43107       -2.05024       -3.10266
H         -0.75896       -1.77583       -3.59825
H         -0.13941       -6.80789        0.75707
H          0.02898       -6.61247       -0.98965
H          0.73417       -5.39953        0.10609
C          5.81935        1.04756       -2.54784
C          4.45976       -2.15697       -2.36010
C          6.08232       -1.79196       -0.46190
C          3.98161       -3.05265       -0.07479
C          4.30500        3.97944       -1.40164
C          3.81800        4.10302        1.04974
C          5.96468        3.12265        0.29466
H          3.41014       -2.23465       -2.64243
H          4.90346       -1.36377       -2.95649
H          4.95137       -3.09268       -2.62505
H          6.60557       -1.02778       -1.03114
H          6.18569       -1.54984        0.59531
H          6.58597       -2.74109       -0.64353
H          3.94003       -2.83307        0.99174
H          2.97395       -3.28381       -0.41760
H          4.57776       -3.95522       -0.20739
H          4.75773        4.96998       -1.36632
H          4.77079        3.42593       -2.21319
H          3.24974        4.09842       -1.64629
H          3.80375        3.56331        1.99631
H          4.37119        5.02969        1.20114
H          2.79572        4.37982        0.79653
H          6.51554        2.60004       -0.48317
H          6.09228        2.56838        1.22388
H          6.42225        4.10378        0.41916
H          6.32283        1.98953       -2.76448
H          6.37500        0.24636       -3.03480
H          4.80284        1.07852       -2.94230
