111
-148.55467561
P         -2.47073        2.18406        1.11682
P          0.06355        0.39179        0.49100
C         -1.37119        1.67557        2.46619
C         -0.24459        0.93517        2.18111
C         -3.08457        3.91312        1.36368
C         -2.40643        4.88397        0.42181
C         -1.65807        2.01615        3.77268
H         -2.54999        2.57950        3.99306
C         -0.80783        1.61883        4.79037
H         -1.03118        1.88386        5.81092
C          0.32444        0.88167        4.50058
H          0.98483        0.57050        5.29320
C          0.60506        0.53520        3.19104
H          1.47549       -0.05402        2.94816
Pd        -1.38326        1.60652       -0.84045
Cl        -3.03652        2.68183       -1.91164
Cl        -0.20832        1.00693       -2.65802
C         -4.60438        3.76940        1.16135
C         -4.07659        1.26581        1.08739
H         -2.76832        5.90390        0.57111
H         -1.32306        4.88340        0.56390
H         -2.59965        4.61589       -0.61762
H         -4.84130        3.98435        0.11022
H         -5.14371        4.52890        1.74760
H         -4.24424        0.98127        0.03992
C         -5.09546        2.33702        1.51879
C         -4.02567        0.04128        1.97488
H         -2.86302        4.17331        2.40661
H         -5.24926        2.26240        2.60411
H         -6.07837        2.13456        1.06684
H         -3.79879        0.31835        3.00603
H         -4.97909       -0.49212        1.97592
H         -3.24963       -0.65219        1.64342
C         -1.13515       -3.96035       -0.08646
C         -1.21690       -3.38667        1.20890
C         -0.84946       -2.06034        1.36317
C         -0.49642       -1.29659        0.28171
C         -0.53332       -1.81467       -0.98531
C         -0.88239       -3.13418       -1.21109
O         -1.26029       -5.36540       -0.25135
C         -1.64936       -4.19134        2.44447
H         -0.81352       -1.61006        2.33917
H         -0.27546       -1.16220       -1.80121
C         -0.93494       -3.65208       -2.65625
C          4.43852        0.60721       -0.75087
C          3.90072       -0.59764       -0.23125
C          2.57682       -0.60222        0.17441
C          1.78378        0.50466        0.01700
C          2.27045        1.64037       -0.57445
C          3.58333        1.70890       -1.01145
O          5.83537        0.71848       -0.98279
C          4.72780       -1.88605       -0.09875
H          2.13837       -1.48246        0.61262
H          1.60036        2.47202       -0.70788
C          4.05486        2.96201       -1.76628
C         -2.66065       -5.28912        2.06688
C         -0.40940       -4.81646        3.10125
C         -2.34673       -3.27610        3.47650
C         -1.96717       -4.78412       -2.80526
C         -1.36192       -2.52311       -3.62257
C          0.46030       -4.14772       -3.06639
C         -0.02710       -6.06811       -0.15944
H         -2.21628       -6.02740        1.40410
H         -3.01802       -5.81432        2.95228
H         -3.52185       -4.85828        1.55722
H          0.29855       -4.04396        3.40083
H         -0.68309       -5.38649        3.98872
H          0.10342       -5.48725        2.41597
H         -1.65822       -2.54984        3.90563
H         -3.17448       -2.73634        3.01808
H         -2.74864       -3.86213        4.30272
H         -2.95077       -4.45195       -2.47489
H         -2.04848       -5.10621       -3.84310
H         -1.69238       -5.65273       -2.21223
H         -2.28826       -2.05660       -3.28860
H         -0.59982       -1.74958       -3.70301
H         -1.52660       -2.91421       -4.62621
H          0.79800       -4.95452       -2.42009
H          0.45838       -4.51554       -4.09207
H          1.19024       -3.34133       -2.99841
H          0.16109       -6.60134       -1.09112
H          0.79272       -5.37510        0.03433
H         -0.08239       -6.79969        0.64653
C          6.56888        1.21780        0.12814
C          3.81958       -3.13270       -0.21401
C          5.77465       -1.98776       -1.22281
C          5.41963       -1.90743        1.27234
C          2.88261        3.59560       -2.55076
C          4.58968        3.99281       -0.76131
C          5.14344        2.61099       -2.79694
H          3.15133       -3.22648        0.64084
H          3.21440       -3.08931       -1.11918
H          4.41609       -4.04382       -0.25405
H          6.31852       -2.93046       -1.16810
H          5.29548       -1.92829       -2.19947
H          6.50347       -1.18341       -1.15935
H          4.68436       -1.86392        2.07555
H          6.00600       -2.81705        1.39982
H          6.08800       -1.05767        1.38918
H          2.39108        2.85305       -3.17896
H          2.13716        4.02702       -1.88454
H          3.23728        4.39873       -3.19621
H          3.81586        4.27117       -0.04627
H          5.43163        3.59521       -0.19957
H          4.92117        4.89788       -1.26967
H          4.78645        1.84575       -3.48540
H          6.04040        2.23207       -2.31342
H          5.42831        3.48627       -3.38018
H          7.32264        0.48872        0.42499
H          7.07847        2.13890       -0.15409
H          5.90129        1.41374        0.96814
