64
-97.20985631
Cl        -1.60321       -1.58563       -2.50422
Cl         1.52227       -1.64055       -2.87642
P          1.93833       -0.63775        0.23188
C          2.18507       -2.29786        1.01230
C          3.70053       -0.21761       -0.17100
P         -1.26641       -0.10565        0.43469
C          1.29957        0.60678        1.40743
C         -0.12290        0.87096        1.48267
C         -0.32382        2.00377        2.37541
C          0.98511        2.44823        2.82382
C          1.99041        1.56992        2.25024
H         -1.27856        2.46913        2.62511
H          1.17827        3.28054        3.50468
Pd         0.14989       -1.00997       -1.22044
H          3.07081        1.63890        2.39136
C         -4.83968        2.45741       -0.75815
C         -4.46275        2.36250        0.56692
C         -3.38696        1.56856        0.92267
C         -2.69117        0.88149       -0.04611
C         -3.08300        0.95406       -1.36352
C         -4.15406        1.74903       -1.72467
H         -5.67672        3.07665       -1.03688
H         -5.00578        2.90449        1.32371
H         -3.09647        1.46887        1.95582
H         -2.56602        0.36302       -2.10025
H         -4.45765        1.80783       -2.75707
C         -2.72738       -3.81620        2.60831
C         -2.33068       -2.70692        3.33002
C         -1.89116       -1.57480        2.66724
C         -1.85022       -1.56411        1.29223
C         -2.24839       -2.66386        0.56938
C         -2.68843       -3.79683        1.22766
H         -3.06977       -4.69863        3.12391
H         -2.36240       -2.72237        4.40709
H         -1.57473       -0.70062        3.21392
H         -2.20893       -2.62548       -0.50740
H         -2.99945       -4.66107        0.66409
C          3.97446       -0.25849       -1.65801
H          3.88242        0.79051        0.22408
C          4.49575       -1.27434        0.62103
H          4.75954       -0.87915        1.61300
C          3.68249       -2.58582        0.78929
H          5.45220       -1.47260        0.11564
C          1.78451       -2.25410        2.47092
H          1.55686       -3.01030        0.46015
H          4.07251       -3.17974        1.62845
H          3.81411       -3.21290       -0.10454
H          0.73559       -1.97372        2.58628
H          1.93075       -3.22147        2.95728
H          2.38165       -1.51616        3.01039
H          3.77704       -1.25548       -2.05473
H          3.34236        0.44285       -2.20510
H          5.01587       -0.01555       -1.88040
Fe         0.85614        2.46585        0.78986
C          0.03397        4.05994       -0.21048
C         -0.16786        2.82627       -0.94693
C          1.13409        2.24645       -1.21651
C          2.15180        3.12995       -0.67990
C          1.46530        4.22569       -0.01637
H         -0.74938        4.73455        0.14259
H         -1.13008        2.41642       -1.25499
H          1.31584        1.34784       -1.80894
H          3.23290        2.99227       -0.75045
H          1.94686        5.06824        0.48581
