59
-75.79974579
Cl         1.63088        0.79663        2.30653
P          1.66929       -0.02297       -0.81700
P         -1.52099       -0.13328       -0.82611
C          0.69932        0.25513       -2.36298
H          0.42499        1.31076       -2.42696
H          1.33627        0.02511       -3.22287
C         -0.52527       -0.61201       -2.30738
H         -0.24704       -1.66473       -2.20968
H         -1.14858       -0.51686       -3.20219
C          2.65173       -1.57476       -1.03159
H          2.15958       -2.18131       -1.80202
C          3.06253        1.17660       -0.57295
H          3.05100        1.43489        0.49331
C         -2.69129       -1.45986       -0.26468
H         -2.56529       -1.53917        0.82171
C         -2.74832        1.17372       -1.30061
H         -2.82282        1.07827       -2.39261
C          4.00352       -1.02612       -1.53143
H          4.80328       -1.74882       -1.31081
H          3.98029       -0.93709       -2.62819
C          4.33145        0.36020       -0.91054
H          4.96757        0.94173       -1.59268
H          4.93604        0.22044       -0.00250
C         -4.07956       -0.88304       -0.59728
H         -4.40734       -1.28465       -1.56576
H         -4.82487       -1.23088        0.13388
C         -4.05481        0.66864       -0.66527
H         -4.14708        1.07370        0.35015
H         -4.92489        1.05488       -1.21794
C          2.74550       -2.35907        0.27468
H          3.00662       -1.66298        1.08312
H          3.58859       -3.06152        0.21348
C          2.88155        2.44702       -1.39436
H          3.82347        3.01325       -1.40095
H          2.70420        2.17040       -2.44171
C         -2.39389       -2.80394       -0.91800
H         -2.50145       -2.70089       -2.00582
H         -1.33855       -3.05967       -0.75297
C         -2.34250        2.60519       -0.94531
H         -1.39202        2.83226       -1.44593
H         -3.07077        3.29820       -1.38918
C          1.47154       -3.11968        0.61452
H          0.61503       -2.45159        0.70086
H          1.55768       -3.66097        1.55934
H          1.22923       -3.84906       -0.16077
C          1.75639        3.32605       -0.86683
H          1.97642        3.68451        0.14065
H          0.81823        2.77456       -0.80306
H          1.58542        4.20104       -1.49788
C         -3.28468       -3.92439       -0.40248
H         -4.33851       -3.71401       -0.59331
H         -3.17253       -4.05103        0.67601
H         -3.05161       -4.88272       -0.87223
C         -2.21777        2.89723        0.54236
H         -1.51681        2.22006        1.02745
H         -1.86312        3.91376        0.72857
H         -3.17275        2.79401        1.05905
Cl        -1.60405        0.08938        2.34355
Pd         0.06815        0.13065        0.84631
