105
-153.06738233
Cl         0.03082        1.78087        3.10846
Pd        -0.54133        1.24201        0.99708
P         -1.14360        0.49767       -1.14804
N         -0.78898       -1.02515       -1.95667
C          0.15982       -1.99472       -1.63143
C          0.32538       -2.48365       -0.31038
C          1.30452       -3.46644       -0.05673
C          1.45287       -4.00333        1.34731
C          2.29846       -5.28153        1.45913
C          3.55519       -5.18534        0.58960
C          3.17676       -4.98430       -0.88511
C          2.09785       -3.95264       -1.09978
C          1.88343       -3.49049       -2.39209
C          0.93113       -2.54169       -2.65621
H          0.78684       -2.18406       -3.66078
H          2.48735       -3.88279       -3.19281
H          4.06110       -4.69784       -1.46878
H          4.16676       -4.33939        0.92782
H          2.56449       -5.48406        2.50622
H          1.89616       -3.21782        1.96999
C         -0.65562       -2.14427        0.74836
C         -0.21253       -1.56530        1.96982
C         -1.12625       -1.45020        3.02207
C         -2.42682       -1.85705        2.87605
C         -2.88242       -2.41029        1.68557
C         -4.32056       -2.86691        1.62162
C         -4.80283       -3.25532        0.21447
C         -3.72563       -4.04601       -0.53236
C         -2.44090       -3.21590       -0.66683
C         -1.99519       -2.55971        0.61732
H         -1.62683       -3.84449       -1.04879
H         -4.08982       -4.36805       -1.51826
H         -5.04355       -2.34923       -0.35497
H         -4.95923       -2.07744        2.03737
H         -3.11628       -1.75022        3.69643
H         -0.80038       -1.00189        3.94421
N          1.07840       -1.03868        2.12553
P          1.57690        0.18734        0.96085
C          2.62219       -0.37273       -0.37285
C          2.43637        0.16378       -1.62200
C          3.28032       -0.19918       -2.65537
C          4.31771       -1.09604       -2.43548
C          4.50913       -1.59793       -1.15452
C          3.66228       -1.23428       -0.12284
H          3.80569       -1.61564        0.87564
H          5.32364       -2.27737       -0.97050
C          5.23004       -1.48613       -3.54522
H          3.13434        0.20992       -3.64034
H          1.62715        0.85558       -1.78089
C          2.47894        1.54276        1.72084
C          3.24756        1.32720        2.83914
C          3.94485        2.37984        3.40383
C          3.87423        3.65203        2.85162
C          3.10822        3.84319        1.70948
C          2.41235        2.78987        1.14486
H          1.81433        2.93539        0.25836
H          3.05865        4.82262        1.26526
C          4.63992        4.78145        3.44790
H          4.54940        2.21874        4.28000
H          3.30501        0.33791        3.26335
H          1.24967       -0.60643        3.02412
H         -1.06029       -0.92045       -2.92608
C         -0.57998        1.86889       -2.16717
C         -0.75310        3.15888       -1.72527
C         -0.29470        4.21903       -2.48341
C          0.33319        3.99555       -3.70086
C          0.49700        2.68749       -4.13571
C          0.03575        1.62987       -3.37371
H          0.17498        0.61605       -3.70952
H          0.99357        2.50206       -5.07287
C          0.85765        5.13418       -4.50459
H         -0.42152        5.22887       -2.13225
H         -1.25593        3.33006       -0.78789
C         -2.93782        0.57819       -1.11364
C         -3.59763        0.97607       -2.25211
C         -4.97993        1.03367       -2.26252
C         -5.70956        0.68929       -1.13284
C         -5.02434        0.29805        0.00860
C         -3.64359        0.23036        0.01173
H         -3.10873       -0.07349        0.89672
H         -5.57957        0.05239        0.89751
C         -7.19579        0.77849       -1.12899
H         -5.50042        1.35240       -3.14940
H         -3.02827        1.24414       -3.12826
Cl        -2.34212        2.58767        1.04254
H          2.83910       -5.93582       -1.31291
H          1.70010       -6.14272        1.13625
H          4.18725       -6.07584        0.71556
H          0.45314       -4.17862        1.76440
H         -3.50575       -4.96968        0.01754
H         -2.58881       -2.43385       -1.42037
H         -4.43993       -3.72190        2.29787
H         -5.74043       -3.82671        0.26577
H          6.08208       -0.80750       -3.60341
H          5.61329       -2.49746       -3.40180
H          4.71336       -1.46215       -4.50576
H          4.75918        4.65122        4.52439
H          5.63417        4.85236        3.00476
H          4.12971        5.73179        3.28493
H          0.25813        6.03276       -4.35230
H          1.88641        5.36436       -4.22414
H          0.84282        4.90362       -5.57075
H         -7.60214        0.64012       -2.13187
H         -7.63347        0.01327       -0.48626
H         -7.52368        1.75274       -0.76408
