171
-217.84305468
P         -1.64597        0.36933       -0.42948
P          1.63148       -0.40133       -0.30391
C         -0.87693        1.29678       -1.75953
C          0.95108       -1.39998       -1.63001
C         -0.04311        0.65334       -2.66733
C          0.60969        1.42375       -3.64891
C          0.38038        2.78844       -3.70264
C         -0.47173        3.40237       -2.80939
C         -1.09506        2.65082       -1.83290
C          1.18345       -2.75384       -1.60940
C          0.61650       -3.57090       -2.56713
C         -0.19966       -3.02225       -3.53334
C         -0.44795       -1.65987       -3.56986
C          0.15552       -0.82226       -2.61284
Cl         1.41669        0.35251        2.88776
Cl        -1.75089       -0.56364        2.66170
C         -1.33025       -1.10297       -4.63071
C          1.53229        0.79974       -4.63693
H         -0.64903        4.46366       -2.87085
H         -1.75924        3.12284       -1.12737
H          1.81201       -3.17487       -0.84162
H          0.80643       -4.63174       -2.55386
H          0.87913        3.37166       -4.45835
H         -0.65528       -3.65627       -4.27519
C         -3.97837       -3.24337       -1.82085
C         -2.93412       -3.42188       -0.92169
C         -2.22790       -2.29730       -0.51440
C         -2.55166       -1.05913       -1.00910
C         -3.58087       -0.89880       -1.90387
C         -4.32453       -1.99460       -2.32488
H         -4.54280       -4.10579       -2.12128
H         -1.42312       -2.37477        0.19607
H         -3.81419        0.09073       -2.26069
C         -4.23275        2.89154        2.31562
C         -4.80982        1.81073        1.66063
C         -4.01038        1.07054        0.79836
C         -2.69598        1.41290        0.59834
C         -2.14298        2.48345        1.25702
C         -2.89929        3.24079        2.14143
H         -4.84126        3.46311        2.99068
H         -4.40031        0.20454        0.29392
H         -1.10402        2.71416        1.09503
C          4.35558       -2.78749        2.42640
C          3.00912       -3.12739        2.36349
C          2.19841       -2.40832        1.49581
C          2.71420       -1.37984        0.74756
C          4.04345       -1.04868        0.83204
C          4.89639       -1.75453        1.67051
H          5.00473       -3.33004        3.08750
H          1.14932       -2.63885        1.41692
H          4.40739       -0.22345        0.24649
C          3.92130        3.29141       -1.54644
C          2.92938        3.40791       -0.58008
C          2.21714        2.26525       -0.24170
C          2.49123        1.06772       -0.85296
C          3.47681        0.96586       -1.80378
C          4.21723        2.08460       -2.16896
H          4.49758        4.15716       -1.81305
H          1.45994        2.30119        0.52314
H          3.67297        0.00173       -2.24132
Pd        -0.07240       -0.02660        1.25466
C         -3.81504       -5.31563        0.45820
C         -2.62021       -4.82163       -0.37649
C         -1.36655       -4.81053        0.51934
C         -2.36943       -5.78785       -1.54935
H         -3.61961       -6.30433        0.87300
H         -4.01298       -4.63457        1.28575
H         -4.71914       -5.37850       -0.14649
H         -1.13685       -5.81452        0.87577
H         -0.49988       -4.44629       -0.03102
H         -1.51280       -4.17692        1.39385
H         -2.10395       -6.78061       -1.18638
H         -3.25316       -5.89019       -2.17769
H         -1.55392       -5.42881       -2.17585
C         -6.55189       -0.87921       -2.58257
C         -5.51715       -1.78702       -3.27140
C         -6.20072       -3.12082       -3.62990
C         -5.03918       -1.12304       -4.57529
H         -6.89236       -1.32614       -1.64881
H         -6.12821        0.09835       -2.35525
H         -7.42260       -0.72512       -3.21968
H         -7.03645       -2.95603       -4.30992
H         -5.50354       -3.79863       -4.12225
H         -6.59335       -3.61282       -2.74021
H         -4.33246       -1.76611       -5.09774
H         -5.87761       -0.93614       -5.24612
H         -4.55056       -0.16921       -4.38046
C         -6.42052        1.05764        3.42370
C         -6.27344        1.44116        1.94014
C         -6.73167        0.24885        1.07873
C         -7.17786        2.64581        1.61989
H         -6.15331        1.88898        4.07505
H         -7.44611        0.76900        3.65305
H         -5.76953        0.21871        3.66911
H         -6.13913       -0.64127        1.28944
H         -7.77498        0.00443        1.27787
H         -6.64317        0.48221        0.01861
H         -8.22690        2.39976        1.78372
H         -6.93641        3.50292        2.24718
H         -7.06084        2.94842        0.57941
C         -3.12641        4.91018        4.04794
C         -2.25730        4.43082        2.86871
C         -2.08883        5.58881        1.87096
C         -0.88022        4.01963        3.42871
H         -2.62637        5.70760        4.59754
H         -4.08182        5.30381        3.70231
H         -3.31961        4.09510        4.74523
H         -1.49040        5.28150        1.01486
H         -3.05758        5.91802        1.49556
H         -1.59844        6.44209        2.33918
H         -0.43689        4.82936        4.00788
H         -0.97306        3.15007        4.07901
H         -0.18222        3.76829        2.63260
C          1.98163       -5.40540        2.27115
C          2.39526       -4.25491        3.20468
C          1.15744       -3.72044        3.95316
C          3.39256       -4.79635        4.24686
H          1.52111       -6.21886        2.83146
H          1.26700       -5.06379        1.52425
H          2.84787       -5.80436        1.74369
H          1.42374       -2.86551        4.57422
H          0.37839       -3.39986        3.26310
H          0.73017       -4.48765        4.59842
H          2.92817       -5.56674        4.86235
H          4.26251       -5.24270        3.76573
H          3.73313       -4.00177        4.91058
C          7.23478       -2.64393        1.46405
C          6.38549       -1.40355        1.79792
C          6.67401       -0.94642        3.23910
C          6.78506       -0.26826        0.83395
H          7.01960       -2.99699        0.45565
H          8.29874       -2.41469        1.52148
H          7.03360       -3.46145        2.15521
H          6.06503       -0.07985        3.49601
H          6.45069       -1.73574        3.95598
H          7.72175       -0.67160        3.35955
H          7.84717       -0.04047        0.92280
H          6.59276       -0.54932       -0.20137
H          6.23375        0.64616        1.05258
C          1.16270        5.12525       -0.14413
C          2.62025        4.72647        0.14147
C          3.54047        5.86848       -0.32996
C          2.82025        4.53237        1.65662
H          0.89721        6.04200        0.38194
H          1.01286        5.29182       -1.21025
H          0.47468        4.34265        0.17054
H          3.30619        6.79457        0.19494
H          4.58703        5.63463       -0.13550
H          3.41931        6.05494       -1.39690
H          3.84777        4.24187        1.87430
H          2.60616        5.45238        2.20020
H          2.16643        3.75433        2.04770
C          5.15324        3.02957       -4.30406
C          5.37796        2.00978       -3.17155
C          5.50253        0.60530       -3.79402
C          6.69300        2.33560       -2.43948
H          5.12835        4.04931       -3.92214
H          5.95257        2.97257       -5.04276
H          4.20990        2.84212       -4.81495
H          5.71063       -0.14507       -3.03151
H          4.58872        0.32281       -4.31544
H          6.31811        0.57365       -4.51634
H          7.54311        2.27755       -3.11900
H          6.67107        3.33923       -2.01620
H          6.86411        1.63343       -1.62407
H         -1.83466       -0.19759       -4.29007
H          1.83857       -0.19926       -4.32391
H         -2.09725       -1.82415       -4.91422
H         -0.75810       -0.85631       -5.52578
H          2.43523        1.39880       -4.75400
H          1.05802        0.71755       -5.61579
