111
-148.55460827
P         -1.62310        2.80870        0.01072
P         -0.52624       -0.11443        0.48005
C         -1.63909        2.09329        1.68145
C         -1.23069        0.78966        1.87022
C         -0.39167        4.18570       -0.08399
C          0.71699        3.84479       -1.05735
C         -2.02606        2.85311        2.76708
H         -2.30368        3.88422        2.62290
C         -2.02984        2.29482        4.03379
H         -2.33656        2.88711        4.88041
C         -1.63496        0.98319        4.21589
H         -1.63246        0.55109        5.20303
C         -1.22267        0.23078        3.13082
H         -0.87504       -0.78242        3.25826
Pd        -1.33918        0.98359       -1.38540
Cl        -2.49197        2.04180       -2.98446
Cl        -0.80770       -0.87490       -2.53798
C         -1.24250        5.40397       -0.49749
C         -3.17434        3.73759       -0.39171
H          1.26050        2.94995       -0.74746
H          0.31005        3.65022       -2.05178
H          1.43638        4.66225       -1.14595
H         -1.12108        5.56623       -1.57721
H         -0.85973        6.31818       -0.01938
H         -3.36044        3.56165       -1.45892
C         -2.75110        5.20157       -0.17665
C         -4.36347        3.28095        0.42629
H          0.00007        4.31321        0.93347
H         -2.94922        5.48082        0.86716
H         -3.37635        5.87350       -0.78447
H         -5.27004        3.82237        0.14666
H         -4.55058        2.21356        0.28863
H         -4.19930        3.44908        1.49079
C         -0.81520       -4.65253        0.63728
C          0.33520       -3.99776        1.15212
C          0.38586       -2.61534        1.08367
C         -0.67515       -1.89053        0.60689
C         -1.83781       -2.50981        0.23104
C         -1.95648       -3.88980        0.27138
O         -0.79302       -6.05270        0.41075
C          1.53258       -4.72866        1.78247
H          1.27359       -2.08578        1.38677
H         -2.65272       -1.89977       -0.12120
C         -3.31919       -4.50474       -0.08944
C          3.75328        1.32021       -0.12131
C          3.18719        0.38359       -1.02669
C          1.88325       -0.02711       -0.81102
C          1.18390        0.38432        0.29154
C          1.76767        1.18985        1.23350
C          3.06692        1.64307        1.07973
O          4.95233        1.99827       -0.46037
C          3.92743       -0.20144       -2.24017
H          1.37613       -0.64526       -1.53202
H          1.18720        1.48358        2.09088
C          3.67749        2.46988        2.22323
C          1.91666       -4.03391        3.10774
C          1.21373       -6.19530        2.12071
C          2.73005       -4.67031        0.81926
C         -3.54381       -4.39035       -1.60650
C         -3.42988       -5.97867        0.33802
C         -4.43982       -3.73763        0.64666
C         -0.30890       -6.39171       -0.87830
H          2.71633       -4.57541        3.61250
H          2.26722       -3.01607        2.94512
H          1.06137       -3.99237        3.78161
H          1.03096       -6.77736        1.22068
H          2.04053       -6.66433        2.65360
H          0.32453       -6.26060        2.74675
H          3.60027       -5.16580        1.24891
H          2.49923       -5.15732       -0.12622
H          3.00473       -3.63850        0.60259
H         -3.50340       -3.35039       -1.92891
H         -2.78275       -4.93729       -2.15943
H         -4.51688       -4.79200       -1.88781
H         -2.73542       -6.60393       -0.21797
H         -3.20386       -6.08941        1.39798
H         -4.43360       -6.36466        0.16168
H         -4.50882       -2.70334        0.31413
H         -5.40978       -4.20088        0.46759
H         -4.26179       -3.73545        1.72166
H         -0.93127       -5.93190       -1.64410
H          0.71326       -6.03703       -0.99931
H         -0.33120       -7.47514       -0.99750
C          4.71967        3.18983       -1.19362
C          3.35180        0.40714       -3.52996
C          5.44330        0.05326       -2.18195
C          3.72665       -1.73298       -2.26929
C          3.39536        1.76773        3.57006
C          5.20494        2.60487        2.09810
C          3.03593        3.86730        2.24165
H          2.28447        0.20490       -3.61415
H          3.48710        1.48685       -3.54989
H          3.84218       -0.00907       -4.40947
H          5.95826       -0.45234       -2.99849
H          5.66782        1.11444       -2.25861
H          5.85794       -0.30877       -1.24180
H          4.29053       -2.18339       -3.08567
H          4.06790       -2.18231       -1.33725
H          2.68110       -2.00219       -2.40943
H          2.33032        1.73191        3.79324
H          3.77154        0.74515        3.55642
H          3.88110        2.29388        4.39146
H          5.62728        3.10942        2.96679
H          5.67158        1.62404        2.01395
H          5.47970        3.18108        1.21790
H          3.20782        4.39241        1.30402
H          3.44774        4.47433        3.04742
H          1.95908        3.79853        2.39172
H          5.67578        3.62644       -1.48292
H          4.13748        2.97163       -2.08753
H          4.16944        3.90388       -0.58325
