111
-148.55147828
P         -2.56201        2.06849        0.84869
P          0.09903        0.39736        0.48050
C         -1.50069        1.73805        2.28329
C         -0.31196        1.06471        2.10314
C         -3.40877        3.70868        1.00573
C         -2.72727        4.79245        0.19961
C         -1.86863        2.15230        3.54793
H         -2.80974        2.65617        3.69282
C         -1.03636        1.90187        4.62538
H         -1.32351        2.22600        5.61238
C          0.15969        1.23603        4.43871
H          0.80645        1.03954        5.27792
C          0.52052        0.81054        3.17303
H          1.44046        0.27039        3.01156
Pd        -1.30737        1.48197       -1.00552
Cl        -2.58786        2.79502       -2.28805
Cl        -0.00408        0.70988       -2.66979
C         -4.84946        3.38055        0.57528
C         -4.03576        0.95340        0.72133
H         -1.68322        4.91121        0.49839
H         -2.73787        4.55341       -0.86355
H         -3.22765        5.75566        0.32273
H         -4.93551        3.52846       -0.51017
H         -5.55794        4.09047        1.02892
H         -4.03562        0.56546       -0.30619
C         -5.22351        1.91275        0.93097
C         -3.95413       -0.17820        1.72269
H         -3.38808        3.96417        2.07251
H         -5.53757        1.86126        1.98246
H         -6.09420        1.57765        0.34728
H         -3.88523        0.20988        2.74069
H         -4.83454       -0.82293        1.67064
H         -3.07183       -0.79738        1.54783
C         -1.20378       -3.96507        0.23374
C         -1.10404       -3.33410        1.50045
C         -0.68998       -2.01345        1.54536
C         -0.45868       -1.30563        0.39523
C         -0.66414       -1.88015       -0.83063
C         -1.07115       -3.19632       -0.95022
O         -1.39603       -5.36996        0.15391
C         -1.40801       -4.06928        2.81510
H         -0.53562       -1.51837        2.48744
H         -0.48601       -1.27824       -1.70368
C         -1.32726       -3.76838       -2.35284
C          4.48743        0.74531       -0.68190
C          3.79207       -0.47324       -0.88711
C          2.45827       -0.53278       -0.52313
C          1.83761        0.52819        0.08196
C          2.53083        1.67354        0.37336
C          3.87108        1.79804        0.04318
O          5.78270        0.92587       -1.23571
C          4.43852       -1.70788       -1.53430
H          1.87600       -1.41398       -0.72629
H          2.00364        2.47731        0.85781
C          4.62495        3.07556        0.44504
C         -1.90874       -3.08044        3.89282
C         -2.51845       -5.11699        2.61728
C         -0.12759       -4.74519        3.32794
C         -1.85493       -2.66584       -3.30005
C         -0.01068       -4.31716       -2.92378
C         -2.39569       -4.87586       -2.31701
C         -0.18612       -6.11608        0.10892
H         -2.23821       -3.61448        4.78379
H         -1.12507       -2.39190        4.20533
H         -2.75146       -2.49714        3.52319
H         -2.20784       -5.89833        1.92794
H         -2.77917       -5.59486        3.56128
H         -3.41686       -4.65195        2.21273
H          0.65758       -4.00775        3.49323
H         -0.30938       -5.26211        4.26987
H          0.24721       -5.47329        2.61267
H         -2.71717       -2.16119       -2.86500
H         -1.09340       -1.91767       -3.51441
H         -2.16224       -3.09066       -4.25527
H          0.73564       -3.52651       -2.99789
H          0.39868       -5.09979       -2.28919
H         -0.16027       -4.73347       -3.91959
H         -3.31863       -4.50378       -1.87347
H         -2.62208       -5.23471       -3.32073
H         -2.06467       -5.72879       -1.73016
H          0.67466       -5.45135        0.19306
H         -0.17151       -6.83576        0.92734
H         -0.12849       -6.66667       -0.82979
C          5.77707        1.46377       -2.55221
C          4.22263       -1.65165       -3.05433
C          5.94158       -1.78372       -1.21153
C          3.79606       -3.00659       -0.99332
C          6.11210        2.78152        0.71417
C          4.48574        4.12097       -0.67184
C          4.04089        3.66524        1.74911
H          4.65833       -2.52232       -3.54370
H          3.15907       -1.62745       -3.29104
H          4.67615       -0.76165       -3.48404
H          6.10294       -1.78152       -0.13407
H          6.38462       -2.69201       -1.61924
H          6.48113       -0.93824       -1.63060
H          2.76287       -3.11404       -1.31986
H          4.33574       -3.88320       -1.35094
H          3.81445       -3.02360        0.09607
H          6.63125        3.67389        1.06292
H          6.21885        2.00809        1.47403
H          6.61779        2.43773       -0.18468
H          4.99989        5.04490       -0.40833
H          4.90604        3.75759       -1.60646
H          3.43689        4.35680       -0.85017
H          4.65180        4.49388        2.10654
H          4.00766        2.91078        2.53475
H          3.03362        4.05183        1.60172
H          6.25266        0.76204       -3.23712
H          4.75435        1.65495       -2.87986
H          6.34476        2.39398       -2.56931
