111
-148.55610339
P         -2.63975        2.01317        0.48213
P          0.10864        0.43218        0.52279
C         -1.81353        1.67655        2.06188
C         -0.59461        1.03321        2.06907
C         -3.46815        3.66851        0.48491
C         -2.69044        4.68203       -0.32593
C         -2.39984        2.05105        3.25406
H         -3.36229        2.53576        3.24577
C         -1.75658        1.78651        4.45103
H         -2.21383        2.07862        5.38229
C         -0.53191        1.14655        4.45432
H         -0.03286        0.93829        5.38639
C          0.04915        0.76415        3.25863
H          0.99615        0.24764        3.24304
Pd        -1.08884        1.48740       -1.14889
Cl        -2.56202        2.35225       -2.60603
Cl         0.53906        1.04158       -2.62755
C         -4.87322        3.34664       -0.05687
C         -4.09410        0.91597        0.15373
H         -2.60215        4.36298       -1.36516
H         -3.18156        5.65789       -0.32220
H         -1.67787        4.80948        0.06429
H         -4.87267        3.49376       -1.14573
H         -5.61070        4.06190        0.33810
H         -3.98264        0.56735       -0.88181
C         -5.28824        1.88231        0.26612
C         -4.13379       -0.25464        1.11223
H         -3.52902        3.98333        1.53441
H         -5.68862        1.83224        1.28804
H         -6.10949        1.55355       -0.38873
H         -4.17853        0.09214        2.14623
H         -5.00677       -0.88715        0.93518
H         -3.24140       -0.87604        1.01337
C         -1.33640       -3.81729       -0.23688
C         -0.76006       -3.06271       -1.29048
C         -0.34119       -1.77299       -1.01636
C         -0.41336       -1.25860        0.25037
C         -0.86452       -2.02184        1.29452
C         -1.29840       -3.32104        1.09179
O         -1.98859       -5.04710       -0.51816
C         -0.62417       -3.59847       -2.72353
H          0.02909       -1.13202       -1.79772
H         -0.88866       -1.58051        2.27517
C         -1.75041       -4.15391        2.30131
C          4.64166        0.66827        0.22747
C          4.02569       -0.48524        0.77712
C          2.64275       -0.52018        0.84324
C          1.88934        0.55872        0.46069
C          2.48317        1.71715        0.03463
C          3.86155        1.81725       -0.06226
O          6.03048        0.65831       -0.06983
C          4.82486       -1.70602        1.25907
H          2.12914       -1.40511        1.17821
H          1.84842        2.53946       -0.24768
C          4.48161        3.14387       -0.52768
C         -0.41844       -5.12387       -2.73064
C         -1.88252       -3.22781       -3.52307
C          0.60614       -2.97439       -3.42170
C         -0.96804       -3.74049        3.56886
C         -3.24792       -3.91875        2.55106
C         -1.47876       -5.65241        2.07607
C         -3.37315       -4.91067       -0.81320
H         -0.25923       -5.49313       -3.74344
H          0.44844       -5.39667       -2.12973
H         -1.28256       -5.64291       -2.32367
H         -1.81158       -3.58388       -4.55044
H         -2.77458       -3.66152       -3.07732
H         -2.01730       -2.14662       -3.54890
H          1.50265       -3.10412       -2.81596
H          0.78337       -3.44593       -4.38796
H          0.46908       -1.91010       -3.60666
H         -1.22989       -2.73502        3.89510
H         -1.19048       -4.41291        4.39710
H          0.10632       -3.77439        3.38933
H         -3.44404       -2.86681        2.75678
H         -3.84167       -4.20316        1.68557
H         -3.59708       -4.49928        3.40457
H         -0.42559       -5.82232        1.85481
H         -1.73828       -6.23501        2.95966
H         -2.06096       -6.04063        1.24413
H         -3.67341       -3.86359       -0.75518
H         -3.57319       -5.29060       -1.81491
H         -3.95760       -5.49622       -0.10369
C          6.33834        0.19242       -1.37790
C          4.99941       -2.69082        0.09285
C          6.19897       -1.28820        1.81326
C          4.07855       -2.42727        2.40503
C          3.60363        4.33923       -0.09246
C          5.87185        3.35923        0.09749
C          4.58229        3.14357       -2.06076
H          4.03016       -3.01466       -0.28594
H          5.54027       -2.23354       -0.73215
H          5.55166       -3.57570        0.40819
H          6.81961       -0.84089        1.04103
H          6.08380       -0.55782        2.61343
H          6.73814       -2.14688        2.21258
H          4.69852       -3.21323        2.83577
H          3.82310       -1.72849        3.20124
H          3.16166       -2.89989        2.05583
H          3.40243        4.30291        0.97788
H          4.10265        5.28392       -0.30733
H          2.65170        4.35424       -0.62106
H          6.57650        2.59848       -0.22858
H          6.28170        4.32916       -0.18313
H          5.81425        3.31688        1.18462
H          3.59779        3.01673       -2.51061
H          5.21323        2.33179       -2.41438
H          5.00273        4.08045       -2.42521
H          5.42462       -0.07022       -1.91261
H          6.87053        0.96890       -1.92714
H          6.98564       -0.68193       -1.31247
