111
-148.55375892
P         -2.33448        2.36668        0.24459
P         -0.12151        0.12941        0.58257
C         -1.80967        1.86961        1.90369
C         -0.83779        0.90404        2.04495
C         -2.45618        4.20681        0.09643
C         -1.32667        4.76190       -0.74441
C         -2.37177        2.45252        3.02106
H         -3.13774        3.20158        2.90211
C         -1.95135        2.06720        4.28244
H         -2.38990        2.52026        5.15653
C         -0.96881        1.10556        4.42199
H         -0.63881        0.80833        5.40378
C         -0.40833        0.52335        3.29905
H          0.36355       -0.22501        3.39006
Pd        -0.92283        1.31519       -1.24068
Cl        -2.09219        2.24809       -2.91266
Cl         0.59874        0.29376       -2.54352
C         -3.86204        4.41334       -0.49822
C         -4.07804        1.88804       -0.14255
H         -0.35294        4.52180       -0.31044
H         -1.34945        4.33925       -1.75033
H         -1.39688        5.84786       -0.84111
H         -3.77418        4.48729       -1.59093
H         -4.28028        5.37688       -0.16958
H         -4.05774        1.46950       -1.15773
C         -4.81658        3.23936       -0.13632
C         -4.60314        0.87007        0.84748
H         -2.40963        4.60331        1.11896
H         -5.24110        3.40647        0.86317
H         -5.67770        3.20797       -0.82111
H         -4.58682        1.27161        1.86221
H         -5.63353        0.58666        0.62044
H         -3.99280       -0.03652        0.84517
C         -1.33335       -4.24232        0.11788
C         -0.61139       -3.58697       -0.91163
C         -0.29451       -2.25140       -0.73775
C         -0.58554       -1.59468        0.42840
C         -1.19399       -2.25213        1.46559
C         -1.55050       -3.58601        1.35650
O         -1.87126       -5.53821       -0.10287
C         -0.19432       -4.28464       -2.21572
H          0.16905       -1.68789       -1.52813
H         -1.40018       -1.70176        2.36587
C         -2.19058       -4.29118        2.56285
C          4.32994        0.95893        0.16867
C          3.87198       -0.38329        0.12780
C          2.51433       -0.61748        0.26553
C          1.64171        0.41086        0.50421
C          2.09036        1.69771        0.64655
C          3.43638        2.00160        0.52531
O          5.67037        1.26284       -0.18894
C          4.81118       -1.57397       -0.11924
H          2.11486       -1.61064        0.16294
H          1.36389        2.47015        0.83546
C          3.89033        3.45461        0.73298
C          1.12307       -3.68220       -2.75636
C          0.06265       -5.78523       -1.98803
C         -1.29345       -4.08669       -3.27035
C         -1.69840       -3.66492        3.88773
C         -3.71755       -4.14036        2.48896
C         -1.80532       -5.78128        2.60103
C         -3.17560       -5.53478       -0.66977
H          0.99204       -2.65394       -3.08959
H          1.89787       -3.69872       -1.99081
H          1.48637       -4.25113       -3.61179
H          0.81211       -5.93210       -1.21100
H         -0.84258       -6.30146       -1.67905
H          0.42021       -6.26425       -2.89918
H         -2.23928       -4.50822       -2.93825
H         -1.45342       -3.02632       -3.46451
H         -1.02273       -4.56499       -4.21124
H         -2.07117       -2.64986        4.01725
H         -2.04724       -4.24426        4.74230
H         -0.60957       -3.63893        3.92349
H         -4.00100       -3.08803        2.48613
H         -4.11513       -4.59258        1.58367
H         -4.19868       -4.61757        3.34233
H         -0.72206       -5.89738        2.60898
H         -2.20529       -6.26694        3.49078
H         -2.19132       -6.31314        1.73494
H         -3.15616       -6.03179       -1.63943
H         -3.85692       -6.08373       -0.01983
H         -3.53438       -4.51214       -0.79291
C          5.84991        1.53812       -1.57270
C          4.91611       -1.82962       -1.63059
C          6.20731       -1.31394        0.47481
C          4.26469       -2.85087        0.55961
C          2.98428        4.16507        1.76482
C          5.32718        3.51689        1.28177
C          3.79743        4.20944       -0.60196
H          3.93328       -2.02975       -2.05635
H          5.32955       -0.96770       -2.14847
H          5.55621       -2.68654       -1.83881
H          6.85299       -2.18332        0.35322
H          6.69505       -0.47226       -0.01033
H          6.13588       -1.09037        1.53870
H          4.98752       -3.66369        0.49291
H          4.05962       -2.67123        1.61462
H          3.34818       -3.20015        0.08684
H          3.37820        5.15074        2.01159
H          1.97481        4.31161        1.38363
H          2.92213        3.58869        2.68752
H          5.62385        4.54508        1.48744
H          5.40893        2.94846        2.20760
H          6.04143        3.10440        0.57381
H          2.77593        4.19592       -0.98159
H          4.43542        3.75602       -1.35671
H          4.10066        5.24950       -0.48481
H          6.57381        0.84039       -1.99340
H          4.90207        1.44440       -2.10444
H          6.23899        2.54835       -1.69827
