72
-98.09175140
Fe         0.02208        2.81130       -0.04291
P          1.87279       -0.07811        0.01135
P         -1.84239       -0.06961       -0.06235
C          1.43526        1.57964        0.66573
C          0.43996        1.85042        1.68920
C          0.40065        3.28506        1.91494
C          1.39136        3.90582        1.05415
C          2.01971        2.85261        0.27381
C         -1.38611        1.57558       -0.74374
C         -1.98877        2.85432       -0.40067
C         -1.33210        3.88483       -1.18709
C         -0.35104        3.24486       -2.04371
C         -0.38521        1.81954       -1.76880
C          3.15168       -0.78991        1.13865
C          4.42520       -0.09728        0.62816
C          2.94530        0.08349       -1.49474
C          4.38157        0.12802       -0.91281
C         -3.04405       -0.86770       -1.23237
C         -4.38755       -0.82926       -0.47494
C         -2.96425        0.16242        1.39958
C         -4.35078        0.15622        0.72463
H         -0.17137        1.10303        2.19339
H         -0.24025        3.80247        2.63265
H          1.62072        4.97232        0.99962
H          2.81848        2.98487       -0.45924
H         -2.79177        3.00996        0.32258
H          0.23218        1.06020       -2.24653
Cl         1.56819       -3.11849       -0.05289
Cl        -1.62511       -3.01925        0.30976
Pd         0.01716       -1.48483        0.05105
H          3.20494       -1.86780        0.94947
C          2.81239       -0.52566        2.59993
H          2.67994        1.03175       -1.97713
C          2.75102       -1.07850       -2.46896
H          5.31944       -0.67077        0.91775
H          4.51974        0.87108        1.14075
H          4.87256        1.07681       -1.17543
H          4.98176       -0.64867       -1.40677
H         -1.56246        4.95224       -1.16343
H          0.29675        3.74450       -2.76722
H          2.75688        0.55904        2.76149
H          3.57890       -1.07659       -3.19195
H         -2.70813       -1.90022       -1.38563
C         -3.05749       -0.14225       -2.57389
H         -2.73321        1.13994        1.84004
C         -2.83341       -0.93298        2.45706
H         -4.64112       -1.83602       -0.11238
H         -5.19622       -0.55549       -1.16635
H         -4.59922        1.16891        0.37347
H         -5.12511       -0.10128        1.46277
H         -3.43532        0.87738       -2.42026
H         -2.94329       -1.90678        1.96391
C          3.80723       -1.15311        3.56434
H          3.85804       -2.23491        3.42745
H          4.81354       -0.76096        3.40705
H          3.54139       -0.96541        4.60711
C          1.42824       -1.06195       -3.21951
H          1.32288       -0.15384       -3.81587
H          1.33764       -1.91016       -3.90194
H          0.57804       -1.10865       -2.53929
C         -3.87337       -0.85971       -3.63993
H         -3.49236       -1.86790       -3.81338
H         -4.91981       -0.95859       -3.34752
H         -3.85080       -0.33160       -4.59592
C         -1.53974       -0.88976        3.25365
H         -0.66962       -1.01263        2.60953
H         -1.42980        0.06041        3.77948
H         -1.49665       -1.68317        4.00335
H          1.79968       -0.89930        2.80518
H          2.85928       -2.01839       -1.91214
H         -2.02252       -0.01721       -2.92122
H         -3.68791       -0.86506        3.14462
