59
-75.79739613
Cl         1.56723        0.58324        2.42306
P          1.53072        0.25030       -0.80658
P         -1.60242       -0.20827       -0.72688
C          0.52949        0.38359       -2.35660
H          0.20029        1.42018       -2.46094
H          1.16449        0.15407       -3.21698
C         -0.65031       -0.54160       -2.27196
H         -0.31777       -1.58237       -2.23810
H         -1.32332       -0.44025       -3.12900
C          2.82271       -1.07408       -0.88449
H          2.75677       -1.52569       -1.88232
C          2.59069        1.72051       -0.41464
H          2.11497        2.19667        0.45370
C         -2.83610       -1.54328       -0.36541
H         -2.78194       -1.72508        0.71487
C         -2.74488        1.24258       -0.89921
H         -2.71801        1.53166       -1.95670
C          4.14481       -0.29554       -0.70949
H          4.85771       -0.90837       -0.13898
H          4.61981       -0.13867       -1.68836
C          3.92836        1.07380       -0.00658
H          4.75677        1.76306       -0.22575
H          3.95037        0.92585        1.08350
C         -4.17572       -0.88085       -0.72760
H         -4.41067       -1.10660       -1.77701
H         -4.99401       -1.32345       -0.13914
C         -4.12141        0.65705       -0.52788
H         -4.32972        0.89148        0.52523
H         -4.91710        1.15576       -1.10189
C          2.60771       -2.14293        0.18247
H          2.53197       -1.65100        1.16128
H          3.50556       -2.77362        0.24571
C          2.69698        2.73042       -1.55874
H          1.68760        3.05725       -1.84116
H          3.19570        3.63730       -1.18865
C         -2.55072       -2.83350       -1.12555
H         -2.58324       -2.62515       -2.20293
H         -1.52043       -3.15351       -0.92274
C         -2.34236        2.42087       -0.01617
H         -3.16940        3.14422        0.00889
H         -2.23963        2.06592        1.01788
C          1.38782       -3.01450       -0.07187
H          1.46376       -3.53141       -1.03037
H          0.47516       -2.42011       -0.10021
H          1.25716       -3.77352        0.70275
C          3.43502        2.21765       -2.78618
H          3.00695        1.28420       -3.15114
H          4.48660        2.02376       -2.56877
H          3.40512        2.93483       -3.60990
C         -3.51826       -3.95460       -0.77666
H         -3.48620       -4.18382        0.29018
H         -3.29084       -4.87585       -1.31797
H         -4.54729       -3.68047       -1.01581
C         -1.06731        3.11499       -0.46534
H         -0.21758        2.43367       -0.44175
H         -1.15727        3.48544       -1.48821
H         -0.81702        3.96584        0.17241
Cl        -1.56584       -0.36183        2.47898
Pd        -0.00083        0.02692        0.92098
