59
-75.80671872
Cl         1.65493        0.52459        2.26759
P          1.65685       -0.11202       -0.83920
P         -1.67723       -0.04718       -0.75670
C          0.58241        0.22660       -2.30769
H          0.34542        1.29257       -2.33399
H          1.15867       -0.00043       -3.20973
C         -0.67673       -0.59241       -2.21464
H         -0.43713       -1.65167       -2.09240
H         -1.30006       -0.49737       -3.10882
C          2.65322       -1.63633       -1.20021
H          2.45744       -1.84175       -2.26134
C          3.03528        1.10742       -0.63534
H          3.16318        1.23877        0.44603
C         -3.08707       -1.18689       -0.38760
H         -3.27504       -1.06417        0.68671
C         -2.68165        1.43113       -1.23973
H         -2.10080        2.01373       -1.96538
C          4.11164       -1.17184       -1.03413
H          4.47098       -1.44482       -0.03459
H          4.76662       -1.71144       -1.73488
C          4.24650        0.36304       -1.22273
H          4.32063        0.59769       -2.29367
H          5.17986        0.73539       -0.77325
C         -4.25827       -0.60370       -1.21156
H         -4.56560       -1.33800       -1.96946
H         -5.13854       -0.47744       -0.56416
C         -3.90234        0.75214       -1.89585
H         -4.76536        1.43446       -1.87535
H         -3.69191        0.57981       -2.96268
C          2.25563       -2.84978       -0.36102
H          2.84206       -3.71803       -0.69246
H          1.21326       -3.10668       -0.59017
C          2.74970        2.45406       -1.28838
H          3.67011        3.05455       -1.28883
H          2.51173        2.29283       -2.34773
C         -2.76711       -2.64539       -0.68784
H         -3.68883       -3.23939       -0.61385
H         -2.45266       -2.73243       -1.73580
C         -3.05848        2.29570       -0.03886
H         -3.87497        2.97156       -0.32948
H         -3.48405        1.64741        0.73849
C          2.41975       -2.67193        1.14148
H          2.03906       -3.53221        1.69705
H          1.88479       -1.79392        1.50076
H          3.46502       -2.54623        1.42631
C          1.63148        3.21942       -0.59926
H          1.43127        4.17936       -1.08055
H          1.87547        3.41857        0.44600
H          0.70267        2.64918       -0.60489
C         -1.70714       -3.21692        0.24055
H         -0.78741       -2.63416        0.19309
H         -1.45699       -4.25142       -0.00522
H         -2.04015       -3.19573        1.27999
C         -1.90363        3.10736        0.52603
H         -2.21845        3.73973        1.35923
H         -1.10710        2.46362        0.89775
H         -1.46994        3.75938       -0.23434
Cl        -1.58796        0.11924        2.35857
Pd         0.02727        0.04016        0.79715
