111
-148.55274384
P         -2.62234        1.92311        0.13161
P          0.14178        0.41273        0.46374
C         -1.82729        1.84709        1.76013
C         -0.59783        1.23753        1.88775
C         -3.53212        3.51850       -0.10345
C         -2.75334        4.50198       -0.94922
C         -2.44477        2.38702        2.87052
H         -3.41645        2.84223        2.77291
C         -1.82196        2.32379        4.10513
H         -2.30363        2.74609        4.97192
C         -0.58720        1.71664        4.22889
H         -0.10428        1.66346        5.19074
C          0.02369        1.16535        3.11723
H          0.97650        0.66625        3.20120
Pd        -1.03099        1.19636       -1.37530
Cl        -2.20052        2.12428       -3.04625
Cl         0.59286        0.39544       -2.71046
C         -4.86903        3.05328       -0.70831
C         -4.01099        0.71730       -0.09122
H         -3.29566        5.44273       -1.06859
H         -1.78078        4.72441       -0.50406
H         -2.57205        4.10082       -1.94640
H         -4.77788        3.04922       -1.80337
H         -5.66700        3.77624       -0.47967
H         -3.81818        0.20506       -1.04348
C         -5.24841        1.62743       -0.21412
C         -4.06881       -0.27550        1.04971
H         -3.69791        3.93046        0.89986
H         -5.73303        1.69918        0.76923
H         -5.99666        1.16861       -0.87804
H         -4.90351       -0.97068        0.93338
H         -3.14915       -0.86071        1.11174
H         -4.19440        0.23858        2.00440
C         -1.43344       -3.86233        0.43900
C         -0.92304       -3.29418       -0.75592
C         -0.43929       -1.99926       -0.70802
C         -0.38267       -1.30313        0.47024
C         -0.77034       -1.88950        1.64651
C         -1.26470       -3.18280        1.67265
O         -2.15446       -5.08506        0.39337
C         -0.94358       -4.03017       -2.10414
H         -0.12490       -1.49700       -1.60541
H         -0.71061       -1.30790        2.54933
C         -1.65725       -3.80266        3.02264
C          4.64981        0.94103        0.07974
C          3.89725        1.87214        0.84082
C          2.52571        1.69467        0.92563
C          1.91936        0.59688        0.37218
C          2.65907       -0.36364       -0.26603
C          4.03132       -0.23973       -0.40367
O          6.00827        1.21194       -0.23376
C          4.54077        3.07435        1.54995
H          1.90678        2.42228        1.42146
H          2.14094       -1.20980       -0.68169
C          4.81035       -1.35406       -1.11902
C         -2.25567       -3.70715       -2.83519
C          0.23870       -3.57710       -2.99105
C         -0.80090       -5.55062       -1.91107
C         -0.75900       -3.25410        4.15478
C         -3.11755       -3.44587        3.34034
C         -1.47457       -5.33113        3.00704
C         -3.55316       -4.92231        0.19224
H         -2.34788       -2.63441       -3.00414
H         -2.29668       -4.20612       -3.80300
H         -3.11882       -4.02576       -2.25558
H          0.13649       -2.53927       -3.30414
H          1.18351       -3.68406       -2.45981
H          0.29514       -4.17958       -3.89729
H          0.10669       -5.78291       -1.35491
H         -1.64316       -5.96206       -1.36070
H         -0.75185       -6.06461       -2.87069
H         -0.94692       -2.19828        4.34413
H         -0.94657       -3.78404        5.08838
H          0.29497       -3.37618        3.90646
H         -3.42444       -3.87156        4.29533
H         -3.24692       -2.36525        3.39621
H         -3.79128       -3.82035        2.57337
H         -1.69032       -5.76168        3.98458
H         -2.13793       -5.80314        2.28675
H         -0.45125       -5.59235        2.73957
H         -4.09691       -5.36390        1.02720
H         -3.80596       -3.86419        0.11269
H         -3.85421       -5.43689       -0.72011
C          6.18548        1.95449       -1.43371
C          3.74704        3.44105        2.82492
C          5.97858        2.75201        1.99660
C          4.53942        4.28488        0.60450
C          6.25033       -1.46149       -0.58570
C          4.14005       -2.72635       -0.88112
C          4.82236       -1.06888       -2.62869
H          2.76076        3.83675        2.58745
H          3.62136        2.56952        3.46692
H          4.26880        4.20669        3.39864
H          6.40968        3.58035        2.55828
H          5.99364        1.86703        2.63188
H          6.62582        2.56122        1.14427
H          4.97807        5.15777        1.08732
H          5.10817        4.07978       -0.29930
H          3.52282        4.53929        0.30568
H          6.24932       -1.61846        0.49240
H          6.77879       -2.29403       -1.04950
H          6.81840       -0.55760       -0.79016
H          4.75548       -3.53224       -1.28035
H          3.99773       -2.90919        0.18363
H          3.17110       -2.79189       -1.37260
H          5.35571       -1.84962       -3.17026
H          5.30447       -0.11862       -2.84586
H          3.80586       -1.02018       -3.01875
H          6.72065        2.87872       -1.21632
H          6.77993        1.37437       -2.13930
H          5.21881        2.18978       -1.88090
