171
-217.84095583
P         -1.51511        0.27415       -0.31402
P          1.66517       -0.60730       -0.15491
C         -0.76604        1.00249       -1.78038
C          0.95980       -1.70172       -1.41046
C         -0.03399        0.22089       -2.66429
C          0.56844        0.83508       -3.78017
C          0.39286        2.19412       -3.98220
C         -0.33666        2.95442       -3.09406
C         -0.90991        2.35219       -1.99198
C          1.18198       -3.04960       -1.25406
C          0.57656       -3.96414       -2.09286
C         -0.28460       -3.52202       -3.07331
C         -0.52931       -2.17109       -3.24967
C          0.13188       -1.23672       -2.42887
Cl         1.42339       -0.31484        3.07938
Cl        -1.76431       -0.98608        2.75071
C         -1.50107       -1.74246       -4.29317
C          1.37850        0.04479       -4.74810
H         -0.45584        4.01329       -3.25608
H         -1.47283        2.94290       -1.28968
H          1.83569       -3.39453       -0.47064
H          0.76308       -5.01845       -1.96843
H          0.83699        2.65719       -4.84683
H         -0.78206       -4.23037       -3.71427
C         -4.12698       -3.28488       -1.34416
C         -3.03905       -3.46432       -0.49957
C         -2.26011       -2.35447       -0.20197
C         -2.56366       -1.12221       -0.72605
C         -3.63773       -0.96631       -1.56662
C         -4.44317       -2.04900       -1.89699
H         -4.74721       -4.13343       -1.56301
H         -1.40575       -2.44729        0.44442
H         -3.85179        0.00697       -1.96915
C         -3.90777        3.62530        1.65083
C         -4.18875        3.25145        0.34245
C         -3.46090        2.20346       -0.20591
C         -2.48404        1.56158        0.51692
C         -2.22329        1.95305        1.80819
C         -2.93161        2.98573        2.40401
H         -4.45899        4.43318        2.09186
H         -3.63070        1.91658       -1.22894
H         -1.46274        1.44966        2.37522
C          4.99226       -2.70659        2.10496
C          3.68348       -3.14675        2.26911
C          2.68438       -2.49132        1.56323
C          2.98519       -1.44263        0.73121
C          4.28180       -1.01846        0.58330
C          5.31488       -1.64243        1.26956
H          5.77694       -3.19860        2.64650
H          1.65413       -2.78112        1.68925
H          4.48980       -0.18496       -0.06440
C          3.05657        3.52994       -1.35213
C          2.13177        3.40550       -0.32205
C          1.70895        2.12730        0.01329
C          2.18184        1.03117       -0.66747
C          3.09612        1.17047       -1.68188
C          3.56124        2.43099       -2.03790
H          3.41050        4.50645       -1.62405
H          1.01374        1.98743        0.82268
H          3.44774        0.28568       -2.18466
Pd        -0.06495       -0.37670        1.40417
C         -2.57535       -5.87783       -1.01783
C         -2.75063       -4.84395        0.10935
C         -3.93055       -5.25145        1.00974
C         -1.46662       -4.83136        0.96409
H         -1.76270       -5.58824       -1.68256
H         -2.34348       -6.86208       -0.61131
H         -3.48024       -5.97043       -1.61700
H         -3.75162       -6.22160        1.47292
H         -4.07752       -4.51946        1.80372
H         -4.85705       -5.31798        0.44051
H         -1.26471       -5.82043        1.37481
H         -0.60244       -4.53874        0.36915
H         -1.55832       -4.14042        1.80191
C         -6.27830       -3.17310       -3.25494
C         -5.68879       -1.83413       -2.76996
C         -5.33351       -0.99204       -4.01154
C         -6.74967       -1.09517       -1.93588
H         -7.11968       -3.00429       -3.92697
H         -5.53143       -3.75442       -3.79558
H         -6.64438       -3.77041       -2.42040
H         -6.20591       -0.85865       -4.65111
H         -4.97567       -0.00067       -3.73775
H         -4.55933       -1.48017       -4.60194
H         -7.02631       -1.67982       -1.05875
H         -6.37186       -0.13434       -1.58867
H         -7.65131       -0.91268       -2.52025
C         -6.23085        2.96323       -1.09259
C         -5.22285        3.98150       -0.52655
C         -4.49241        4.68445       -1.68573
C         -6.00154        5.03884        0.27940
H         -7.00355        3.46273       -1.67674
H         -5.74121        2.24061       -1.74380
H         -6.71802        2.41461       -0.28675
H         -3.96470        3.96620       -2.31255
H         -5.19450        5.22769       -2.31792
H         -3.75972        5.39555       -1.30435
H         -6.74932        5.52739       -0.34523
H         -6.52086        4.58364        1.12257
H         -5.33567        5.81348        0.65918
C         -1.13562        3.75954        3.97876
C         -2.61838        3.36040        3.85991
C         -2.89776        2.14354        4.76206
C         -3.48160        4.54061        4.34448
H         -0.91216        4.60683        3.33139
H         -0.88908        4.04343        5.00159
H         -0.47960        2.93712        3.69645
H         -3.93809        1.83114        4.67524
H         -2.27176        1.29529        4.48736
H         -2.70065        2.37865        5.80770
H         -3.24321        4.79527        5.37710
H         -3.30753        5.42868        3.73709
H         -4.54240        4.29428        4.30284
C          2.56105       -5.38543        2.41700
C          3.29535       -4.29139        3.21523
C          2.36559       -3.74005        4.31275
C          4.53020       -4.92115        3.88700
H          2.29314       -6.22383        3.05968
H          1.64357       -5.00326        1.97118
H          3.19141       -5.76392        1.61259
H          2.85985       -2.94584        4.87163
H          1.45239       -3.32585        3.88686
H          2.08151       -4.52333        5.01510
H          4.23698       -5.73815        4.54619
H          5.21664       -5.32645        3.14381
H          5.06552       -4.18814        4.49017
C          7.75495       -1.92133        1.94457
C          6.75030       -1.12877        1.08666
C          6.81451        0.35324        1.50263
C          7.15308       -1.26737       -0.39310
H          8.76672       -1.54056        1.80542
H          7.51511       -1.84001        3.00458
H          7.75955       -2.97599        1.66991
H          6.50280        0.47515        2.53973
H          7.82792        0.74235        1.40589
H          6.16203        0.96806        0.88360
H          6.49819       -0.68181       -1.03699
H          8.17417       -0.92200       -0.55401
H          7.09338       -2.30755       -0.71273
C          2.18276        5.93585       -0.04211
C          1.61357        4.60513        0.48519
C          2.03815        4.43756        1.95592
C          0.07767        4.66662        0.39549
H          3.26971        5.95612        0.03423
H          1.90517        6.09456       -1.08407
H          1.79669        6.77645        0.53441
H          3.12339        4.38339        2.03904
H          1.69396        5.27635        2.56059
H          1.62630        3.52468        2.38427
H         -0.31467        5.50307        0.97335
H         -0.24093        4.79735       -0.63783
H         -0.37894        3.75525        0.77832
C          5.86117        3.31939       -2.48544
C          4.63508        2.63290       -3.11655
C          4.06910        3.51362       -4.24456
C          5.09350        1.29233       -3.72304
H          5.60597        4.30087       -2.08778
H          6.25825        2.71940       -1.66663
H          6.65435        3.45413       -3.22064
H          3.76249        4.48952       -3.87008
H          4.81303        3.67388       -5.02474
H          3.19984        3.04218       -4.70083
H          5.52070        0.64278       -2.95963
H          4.26346        0.76897       -4.19522
H          5.85704        1.45301       -4.48403
H         -1.79288       -0.69922       -4.16476
H          1.88843       -0.78270       -4.25241
H         -2.40802       -2.34650       -4.24124
H         -1.07980       -1.85799       -5.29265
H          2.13917        0.66511       -5.22383
H          0.74923       -0.36890       -5.53680
