171
-217.83327959
P         -1.64483        0.76712        0.28279
P          1.48218       -0.28126       -0.32248
C         -0.88501        1.81620       -0.97953
C          0.49730       -0.98004       -1.66928
C         -0.27713        1.33583       -2.13331
C          0.37658        2.24485       -2.98602
C          0.36917        3.59320       -2.67185
C         -0.24492        4.05387       -1.52703
C         -0.86175        3.15696       -0.67606
C          0.50219       -2.32903       -1.93183
C         -0.25789       -2.84282       -2.96386
C         -1.03988       -1.99997       -3.72493
C         -1.08120       -0.64004       -3.46536
C         -0.28177       -0.11779       -2.43066
Cl         2.28953        1.34302        2.41773
Cl        -0.78604        0.81101        3.46537
C         -1.95429        0.25259       -4.27721
C          1.10334        1.79130       -4.20396
H         -0.23466        5.10525       -1.29036
H         -1.32317        3.49904        0.23862
H          1.07995       -2.99227       -1.31294
H         -0.24760       -3.90092       -3.16844
H          0.86312        4.28401       -3.33414
H         -1.63303       -2.39908       -4.53006
C         -2.97097       -3.48835       -0.56720
C         -3.66410       -2.42675       -1.13530
C         -3.20014       -1.14328       -0.88180
C         -2.09979       -0.93631       -0.08710
C         -1.43817       -1.99921        0.48426
C         -1.85573       -3.30232        0.24045
H         -3.31500       -4.49089       -0.73818
H         -3.72140       -0.29331       -1.28670
H         -0.59148       -1.80879        1.11811
C         -5.50813        2.78324        1.52595
C         -4.65113        2.33336        2.52378
C         -3.46361        1.73256        2.13352
C         -3.14715        1.59965        0.80674
C         -4.00006        2.05751       -0.16755
C         -5.20753        2.65403        0.17522
H         -6.43639        3.24840        1.79965
H         -2.76829        1.37166        2.86929
H         -3.71090        1.94771       -1.19908
C          3.84281       -3.64042        1.67086
C          3.82905       -3.53814        0.28614
C          3.12297       -2.48557       -0.28357
C          2.42271       -1.59749        0.49772
C          2.47014       -1.71090        1.86716
C          3.18445       -2.72726        2.48355
H          4.38684       -4.45001        2.11973
H          3.11316       -2.35652       -1.35115
H          1.97383       -0.98254        2.47961
C          4.46987        2.59933       -2.13852
C          4.33761        1.32860       -2.68408
C          3.42012        0.46455       -2.09732
C          2.67268        0.86608       -1.01740
C          2.80541        2.13191       -0.50541
C          3.71014        3.02822       -1.05791
H          5.19490        3.27165       -2.55859
H          3.26773       -0.52442       -2.49205
H          2.19992        2.41421        0.33631
Pd         0.33297        0.65648        1.53458
C         -4.79935       -1.93324       -3.32375
C         -4.95121       -2.61344       -1.95160
C         -6.12264       -1.96948       -1.18665
C         -5.26933       -4.10313       -2.18147
H         -3.96331       -2.36302       -3.87375
H         -5.69917       -2.06279       -3.92488
H         -4.62293       -0.86368       -3.21882
H         -6.24106       -2.42923       -0.20570
H         -5.95593       -0.90322       -1.03671
H         -7.05873       -2.08849       -1.73188
H         -4.45509       -4.59958       -2.70923
H         -5.43656       -4.62018       -1.23684
H         -6.17165       -4.21743       -2.78212
C         -0.75196       -5.51840       -0.22499
C         -1.16742       -4.52139        0.87340
C         -2.14834       -5.20079        1.84581
C          0.09412       -4.11779        1.65576
H         -0.25297       -6.38585        0.20680
H         -1.61359       -5.87685       -0.78639
H         -0.06288       -5.05364       -0.92857
H         -3.04244       -5.54564        1.32755
H         -1.68683       -6.06276        2.32731
H         -2.46038       -4.50535        2.62480
H          0.57698       -4.99119        2.09380
H          0.81824       -3.63581        1.00164
H         -0.15163       -3.43238        2.46587
C         -5.01927        1.06893        4.65613
C         -4.96595        2.47046        4.02005
C         -6.31863        3.16851        4.25765
C         -3.86005        3.30283        4.69584
H         -4.06399        0.55428        4.55930
H         -5.25811        1.13085        5.71763
H         -5.77994        0.45576        4.17334
H         -6.52422        3.26006        5.32412
H         -6.32147        4.17267        3.83406
H         -7.13616        2.60194        3.81219
H         -4.06502        3.43520        5.75795
H         -2.88800        2.82000        4.60248
H         -3.78820        4.28989        4.23963
C         -7.54720        2.43319       -0.70275
C         -6.19842        3.15377       -0.88552
C         -5.68975        2.87446       -2.31409
C         -6.39246        4.67210       -0.72299
H         -7.42187        1.35412       -0.79012
H         -7.97962        2.64164        0.27507
H         -8.26494        2.75162       -1.45859
H         -5.54444        1.80653       -2.47690
H         -6.40685        3.22625       -3.05564
H         -4.74528        3.38490       -2.50189
H         -5.44216        5.19472       -0.83090
H         -7.07906        5.06060       -1.47497
H         -6.79885        4.91618        0.25786
C          4.46344       -4.26507       -2.06985
C          4.55067       -4.59157       -0.56590
C          3.89481       -5.96364       -0.32542
C          6.03715       -4.64477       -0.16737
H          4.98754       -5.01677       -2.65992
H          3.42795       -4.24461       -2.40935
H          4.91907       -3.29927       -2.28646
H          3.97062       -6.25985        0.72025
H          2.83736       -5.93543       -0.58847
H          4.37269       -6.73613       -0.92761
H          6.15983       -4.93503        0.87527
H          6.57887       -5.36639       -0.77864
H          6.50574       -3.66990       -0.30120
C          3.93596       -1.47678        4.51680
C          3.25869       -2.76707        4.01736
C          4.07336       -3.97525        4.51689
C          1.83870       -2.86139        4.60612
H          4.93545       -1.37842        4.09394
H          3.36482       -0.59437        4.23044
H          4.02616       -1.47761        5.60278
H          4.11013       -3.99285        5.60608
H          3.62618       -4.91264        4.18636
H          5.10000       -3.93387        4.15359
H          1.22198       -2.01816        4.29740
H          1.34705       -3.77768        4.28186
H          1.86968       -2.86718        5.69543
C          6.67312        0.73787       -3.34670
C          5.22963        0.89357       -3.85602
C          5.18811        1.95144       -4.97600
C          4.76557       -0.45104       -4.45061
H          7.33931        0.42097       -4.14892
H          7.05073        1.67874       -2.94728
H          6.72238       -0.00627       -2.55183
H          5.79904        1.64190       -5.82386
H          4.16990        2.09757       -5.33438
H          5.56604        2.91364       -4.63366
H          5.37434       -0.72390       -5.31251
H          4.85381       -1.25586       -3.72181
H          3.72823       -0.39554       -4.78046
C          2.93787        4.72146        0.67727
C          3.90325        4.44185       -0.49201
C          3.63851        5.47797       -1.59945
C          5.34695        4.58638        0.02210
H          3.07687        5.73191        1.06106
H          1.89972        4.62876        0.35966
H          3.10914        4.02975        1.50179
H          2.62332        5.38061       -1.98212
H          3.75926        6.49273       -1.22070
H          4.32521        5.35051       -2.43535
H          6.06894        4.44538       -0.78142
H          5.51197        5.57503        0.45000
H          5.55542        3.84507        0.79332
H         -2.75729       -0.30675       -4.75878
H          1.19186        0.70483       -4.23933
H         -1.38296        0.75021       -5.06133
H         -2.41382        1.02165       -3.65408
H          2.11292        2.20313       -4.22064
H          0.59302        2.12071       -5.11011
