115
-277.94217770
P         -1.46730        0.34561        0.43938
P          2.19219        0.35019        0.58015
C         -2.51277        1.72443       -0.07500
C         -1.93779        2.89179       -0.53284
H         -0.89573        2.91956       -0.80351
C         -2.67642        4.05516       -0.54910
H         -2.20946        4.99519       -0.79489
C         -3.98438        4.05947       -0.09054
C         -4.59107        2.85774        0.23980
H         -5.60627        2.87538        0.60481
C         -3.85472        1.68775        0.24569
H         -4.29767        0.76947        0.59625
C         -2.37055       -1.16437        0.02941
C         -2.26542       -1.80408       -1.18410
H         -1.61541       -1.41021       -1.94735
C         -3.01379       -2.93754       -1.43340
H         -2.92436       -3.46695       -2.37151
C         -3.87579       -3.43295       -0.47377
C         -3.97730       -2.78030        0.73971
H         -4.66887       -3.15502        1.47642
C         -3.22130       -1.65519        0.99311
H         -3.29964       -1.15164        1.94388
C         -1.25994        0.40552        2.25398
C         -0.44252       -0.62656        2.66819
H         -0.03887       -1.27704        1.91234
C         -0.01530       -0.73279        3.99606
C         -0.65359        0.07291        4.93446
H         -0.38508       -0.01406        5.97398
C         -1.49298        1.09233        4.53204
H         -1.87095        1.78527        5.26465
C         -1.71154        1.35608        3.18070
C          1.74710        1.22867        2.11225
C          0.92716        2.32276        1.90626
H          0.55381        2.52508        0.91710
C          0.44112        3.07125        2.97817
C          1.00012        2.83947        4.23092
H          0.67107        3.42760        5.07121
C          1.84322        1.76532        4.43742
H          2.16805        1.53024        5.43662
C          2.14206        0.87837        3.40428
C         -2.09098        2.77223        2.81208
H         -2.90673        3.11502        3.45911
H         -2.53124        2.78027        1.81915
C         -0.88613        3.77771        2.86690
H         -0.88896        4.43501        1.99075
H         -0.99920        4.45589        3.71986
C          1.32304       -1.35097        4.33995
H          1.34654       -2.39925        4.02811
H          1.40256       -1.39109        5.43163
C          2.53523       -0.53332        3.75911
H          3.36327       -0.50947        4.47559
H          2.95347       -1.00960        2.86872
C          2.09063       -1.42909        0.15746
C          2.25900       -1.70276       -1.18524
C          1.73762       -2.44904        1.01105
C          2.00681       -2.96484       -1.68246
C          1.47765       -3.70776        0.51802
C          1.58552       -3.96859       -0.83464
C          3.75487        1.01023       -0.00571
C          4.81791        0.17083       -0.24302
C          3.89278        2.36960       -0.15855
C          6.02890        0.69717       -0.64164
H          4.70481       -0.89207       -0.10216
C          5.10462        2.89511       -0.55992
H          3.05625        3.01846        0.04629
C          6.17839        2.06188       -0.80533
H          6.87869        0.05635       -0.81365
H          5.24210        3.95906       -0.67123
Pd         0.40770        0.64108       -0.95600
Cl        -1.13490        0.73443       -2.58858
Cl         2.02369        1.35866       -2.34497
H          1.12705       -4.49173        1.16915
H          1.63493       -2.26662        2.06075
H          2.06165       -3.17022       -2.74010
H          2.51401       -0.90209       -1.86221
C         -3.92894        5.62265        1.79777
C         -4.59245        5.34620        0.40997
C         -4.37763        6.50872       -0.60195
F         -4.40745        6.76418        2.31001
F         -4.22402        4.58878        2.59757
F         -2.59948        5.68628        1.64522
F         -5.90565        5.19779        0.59948
F         -3.06944        6.77884       -0.71046
F         -4.85859        6.10899       -1.78870
F         -5.04551        7.59120       -0.17399
C         -5.05374       -5.47855        0.44156
C         -4.78454       -4.58991       -0.81028
C         -6.09851       -4.00740       -1.40553
F         -5.69858       -6.59228        0.05977
F         -3.86960       -5.79601        0.98703
F         -5.78823       -4.79474        1.33004
F         -4.22357       -5.36217       -1.74503
F         -5.77382       -3.36927       -2.54017
F         -6.95755       -5.00514       -1.66241
F         -6.62846       -3.13662       -0.53341
C          8.34392        2.78082        0.17369
C          7.51930        2.66455       -1.14055
C          8.24813        1.81849       -2.22632
F          8.44474        1.56895        0.73935
F          9.55836        3.27935       -0.10101
F          7.67667        3.60730        0.99295
F          7.35669        3.89693       -1.62985
F          9.34106        2.47880       -2.63912
F          8.58507        0.62558       -1.71668
F          7.39629        1.65071       -3.24887
C          1.38821       -6.46715       -0.53031
C          1.03244       -5.24027       -1.42058
C         -0.50290       -5.03099       -1.57516
F          2.71451       -6.45101       -0.33063
F          0.75343       -6.37223        0.64631
F          1.03014       -7.59224       -1.16846
F          1.54594       -5.45146       -2.63534
F         -1.06831       -6.15042       -2.04916
F         -1.01949       -4.70029       -0.38322
F         -0.68611       -4.01605       -2.43105
