105
-153.06214658
Cl         0.15755        2.35157        2.87167
Pd        -0.35892        1.45737        0.85883
P         -1.07971        0.48424       -1.17038
N         -0.58688       -0.98191       -2.01401
C          0.24878       -2.02087       -1.61501
C          0.31797       -2.47383       -0.27416
C          1.23705       -3.48947        0.06433
C          1.29223       -3.97520        1.49348
C          2.07927       -5.27908        1.69828
C          3.37733       -5.26987        0.88597
C          3.07500       -5.11904       -0.61215
C          2.05543       -4.05148       -0.91956
C          1.92264       -3.63245       -2.23750
C          1.03602       -2.64585       -2.58114
H          0.96434       -2.31304       -3.60195
H          2.54280       -4.08423       -2.99318
H          3.99680       -4.89775       -1.16546
H          4.00656       -4.43390        1.21670
H          2.28877       -5.44595        2.76432
H          1.73417       -3.18222        2.10777
C         -0.71780       -2.07569        0.70937
C         -0.34412       -1.45679        1.93196
C         -1.31469       -1.30666        2.92619
C         -2.59875       -1.74558        2.73381
C         -2.98330       -2.35327        1.54502
C         -4.40157       -2.85754        1.42921
C         -4.81764       -3.24046        0.00024
C         -3.70675       -4.03186       -0.69437
C         -2.41200       -3.20855       -0.76498
C         -2.04331       -2.51479        0.52498
H         -1.57852       -3.85165       -1.07392
H         -4.02371       -4.34953       -1.69783
H         -5.02698       -2.33179       -0.57706
H         -5.08250       -2.09810        1.83331
H         -3.32921       -1.62450        3.51578
H         -1.04061       -0.82764        3.84978
N          0.95166       -0.97768        2.17234
P          1.62906        0.22040        1.07533
C          2.57758       -0.32941       -0.33018
C          2.35731        0.27365       -1.54407
C          3.13780       -0.07385       -2.63135
C          4.14559       -1.02057       -2.50173
C          4.37342       -1.59060       -1.25569
C          3.59083       -1.24283       -0.16924
H          3.76456       -1.67595        0.80311
H          5.16516       -2.31114       -1.14205
C          4.98977       -1.39264       -3.67006
H          2.96648        0.38755       -3.58869
H          1.57129        1.00452       -1.63527
C          2.66218        1.41536        1.92781
C          3.25596        1.09472        3.12512
C          4.05838        2.02322        3.76327
C          4.26887        3.27740        3.20595
C          3.67717        3.57337        1.98534
C          2.87602        2.64336        1.34762
H          2.41328        2.87097        0.39980
H          3.84626        4.53768        1.53748
C          5.14746        4.27078        3.88324
H          4.52710        1.77815        4.70103
H          3.10036        0.11791        3.55303
H          1.06462       -0.53895        3.07705
H         -0.83930       -0.90460       -2.99164
C         -0.72096        1.88166       -2.25100
C         -1.15640        3.13758       -1.90140
C         -0.88688        4.21800       -2.71947
C         -0.18219        4.04786       -3.90306
C          0.25471        2.77426       -4.24054
C         -0.02024        1.69594       -3.41990
H          0.32166        0.70998       -3.68552
H          0.81366        2.63254       -5.14980
C          0.13612        5.21498       -4.77146
H         -1.21997        5.20302       -2.44037
H         -1.69959        3.26709       -0.97995
C         -2.87327        0.41277       -1.08469
C         -3.56765        0.49752       -2.26848
C         -4.95089        0.45555       -2.26250
C         -5.64823        0.33051       -1.06885
C         -4.93027        0.25646        0.11603
C         -3.54808        0.28086        0.10407
H         -2.98805        0.20913        1.02288
H         -5.46091        0.18231        1.04970
C         -7.13686        0.31212       -1.05199
H         -5.49714        0.52691       -3.18744
H         -3.02413        0.60323       -3.19460
Cl        -2.31725        2.56891        1.06791
H          2.71336       -6.07296       -1.01423
H          1.46173       -6.12978        1.38375
H          3.96626       -6.17775        1.07902
H          0.26645       -4.09556        1.86413
H         -3.51862       -4.95845       -0.13761
H         -2.50343       -2.44874       -1.54980
H         -4.51322       -3.72673        2.08844
H         -5.75843       -3.80894        0.00456
H          5.86340       -0.74319       -3.73970
H          5.34046       -2.42257       -3.58945
H          4.43016       -1.30658       -4.60259
H          5.11931        4.14684        4.96670
H          6.18254        4.15815        3.55789
H          4.83292        5.29108        3.65950
H          1.08420        5.66817       -4.47866
H          0.21411        4.91759       -5.81815
H         -0.63840        5.98007       -4.70206
H         -7.51188       -0.34836       -0.26879
H         -7.53402        1.31139       -0.86888
H         -7.53853       -0.04104       -2.00275
