171
-217.83329776
P         -1.48763        0.18877       -0.19018
P          1.71153       -0.69054        0.22749
C         -0.66512        0.68423       -1.72302
C          0.86809       -1.94188       -0.77290
C          0.04080       -0.27958       -2.43228
C          0.70236        0.08528       -3.62089
C          0.59557        1.38834       -4.07702
C         -0.10197        2.33589       -3.35840
C         -0.72069        1.98045       -2.17641
C          0.94752       -3.22029       -0.27304
C          0.29588       -4.25930       -0.90856
C         -0.46156       -4.00168       -2.03093
C         -0.57270       -2.71846       -2.53896
C          0.12111       -1.66676       -1.91212
Cl         1.23769       -0.44972        3.41532
Cl        -1.88348       -1.07738        2.92902
C         -1.43683       -2.48496       -3.72797
C          1.50568       -0.90508       -4.38982
H         -0.15374        3.35288       -3.71155
H         -1.21817        2.73066       -1.58845
H          1.52017       -3.40126        0.62474
H          0.37080       -5.26223       -0.52116
H          1.07363        1.65860       -5.00308
H         -0.98718       -4.80350       -2.52172
C         -4.64806       -2.88702       -1.24037
C         -3.80766       -3.14362       -0.16318
C         -2.84638       -2.19367        0.15101
C         -2.73288       -1.04081       -0.58310
C         -3.57298       -0.80161       -1.64255
C         -4.55058       -1.72385       -1.99605
H         -5.40583       -3.60465       -1.48852
H         -2.19804       -2.34288        0.99556
H         -3.46572        0.11489       -2.19709
C         -3.74682        3.74755        1.56511
C         -3.81832        3.50158        0.19942
C         -3.13766        2.39877       -0.30069
C         -2.38433        1.59517        0.52184
C         -2.35735        1.84343        1.87329
C         -3.03465        2.92081        2.42408
H         -4.26643        4.59410        1.97042
H         -3.19904        2.16769       -1.34990
H         -1.83791        1.16824        2.52600
C          5.77953       -2.43650        1.21969
C          5.26150       -2.58457       -0.06226
C          4.00919       -2.04345       -0.32305
C          3.30783       -1.39258        0.66200
C          3.83390       -1.25940        1.92053
C          5.08353       -1.77783        2.22730
H          6.74586       -2.84743        1.43959
H          3.56955       -2.13842       -1.30241
H          3.25143       -0.76467        2.67584
C          2.69378        3.44331       -1.35121
C          1.71825        3.33547       -0.36857
C          1.40828        2.06495        0.10160
C          2.03456        0.95697       -0.42189
C          2.99681        1.08527       -1.39342
C          3.35085        2.33895       -1.87655
H          2.96541        4.42088       -1.70470
H          0.67528        1.93442        0.87682
H          3.48240        0.19709       -1.75834
Pd        -0.13907       -0.49303        1.64595
C         -5.03117       -5.34827        0.19675
C         -3.93522       -4.39722        0.71416
C         -4.29235       -3.96967        2.15006
C         -2.59618       -5.15644        0.72072
H         -6.00816       -4.86551        0.20841
H         -4.81763       -5.67495       -0.82088
H         -5.09713       -6.23836        0.82236
H         -5.22824       -3.41164        2.16384
H         -4.40567       -4.83733        2.79957
H         -3.51851       -3.33241        2.57651
H         -2.66027       -6.05610        1.33237
H         -2.32028       -5.45512       -0.29003
H         -1.79254       -4.53940        1.12073
C         -6.39868       -2.61061       -3.50736
C         -5.52855       -1.39463       -3.13432
C         -4.75317       -0.95700       -4.39237
C         -6.44806       -0.24959       -2.67487
H         -5.77929       -3.46066       -3.79337
H         -7.03638       -2.91038       -2.67616
H         -7.04994       -2.37590       -4.34928
H         -5.43817       -0.72085       -5.20654
H         -4.14916       -0.07042       -4.20472
H         -4.09127       -1.75112       -4.73507
H         -5.86875        0.63883       -2.42795
H         -7.16083        0.01856       -3.45450
H         -7.00947       -0.53843       -1.78655
C         -5.36817        5.51063       -0.01697
C         -4.57570        4.42318       -0.76785
C         -5.56687        3.59303       -1.60527
C         -3.56070        5.10943       -1.70022
H         -5.92347        6.13616       -0.71581
H         -6.08625        5.06590        0.67184
H         -4.70302        6.16320        0.54821
H         -6.25209        3.04416       -0.95952
H         -6.15853        4.23465       -2.25804
H         -5.04715        2.87333       -2.23590
H         -2.83858        5.68754       -1.12393
H         -3.00962        4.37715       -2.28930
H         -4.06117        5.78647       -2.39220
C         -1.54420        3.27110        4.41871
C         -3.00285        3.12369        3.94632
C         -3.64162        1.89865        4.62749
C         -3.78111        4.38363        4.37040
H         -1.49692        3.39857        5.49995
H         -0.95156        2.39364        4.16261
H         -1.07626        4.14078        3.95907
H         -3.65577        2.01693        5.71068
H         -4.66809        1.76142        4.28835
H         -3.09044        0.98713        4.39927
H         -3.74001        4.51755        5.45130
H         -3.35964        5.27751        3.91075
H         -4.83109        4.31050        4.08775
C          7.37232       -3.85437       -0.70997
C          6.00499       -3.32500       -1.18313
C          6.23572       -2.36241       -2.36283
C          5.15233       -4.51987       -1.64995
H          8.01682       -3.03876       -0.38256
H          7.25698       -4.55774        0.11450
H          7.88549       -4.37567       -1.51802
H          6.81785       -1.49772       -2.04494
H          6.77787       -2.85608       -3.16914
H          5.29186       -2.00134       -2.76974
H          4.19094       -4.19108       -2.04322
H          5.66029       -5.07869       -2.43572
H          4.95862       -5.20113       -0.82165
C          4.67603       -2.30230        4.64424
C          5.63253       -1.61467        3.65192
C          5.73392       -0.11477        3.98666
C          7.03037       -2.24485        3.80235
H          5.04682       -2.21874        5.66558
H          3.68353       -1.85432        4.61283
H          4.57203       -3.36096        4.40765
H          6.38645        0.39452        3.27777
H          4.75734        0.36637        3.94737
H          6.13885        0.03533        4.98726
H          7.74598       -1.77819        3.12564
H          7.40492       -2.11617        4.81781
H          7.00320       -3.31439        3.59476
C          0.48116        5.44833       -0.95676
C          1.06679        4.60751        0.19401
C          2.13333        5.42599        0.94301
C         -0.07259        4.27526        1.17267
H          1.25575        5.77089       -1.65100
H         -0.25439        4.87508       -1.51910
H         -0.01224        6.34128       -0.57329
H          2.94391        5.71967        0.27686
H          1.70288        6.33271        1.36775
H          2.56384        4.84263        1.75676
H         -0.84715        3.69195        0.67868
H          0.29677        3.70906        2.02683
H         -0.53732        5.18466        1.55326
C          5.06076        1.18704       -3.36630
C          4.46496        2.53420       -2.91462
C          5.59178        3.37852       -2.29104
C          3.89893        3.25764       -4.14956
H          4.29809        0.55082       -3.81374
H          5.84297        1.33855       -4.10999
H          5.50460        0.65607       -2.52469
H          6.41170        3.51665       -2.99565
H          5.23260        4.36488       -1.99976
H          5.98958        2.89106       -1.40109
H          4.67363        3.41038       -4.90079
H          3.10092        2.67347       -4.60479
H          3.49205        4.23340       -3.88710
H         -0.97820       -2.89124       -4.63054
H          0.89678       -1.39442       -5.15097
H         -1.61790       -1.42148       -3.88855
H         -2.40567       -2.96941       -3.59723
H          1.91398       -1.67615       -3.73453
H          2.34511       -0.42379       -4.89372
