105
-153.06341262
Cl         0.01365        1.99997        3.08921
Pd        -0.45795        1.35193        0.98629
P         -1.08278        0.51845       -1.13381
N         -0.65469       -0.97469       -1.96673
C          0.23317       -1.99062       -1.61748
C          0.34824       -2.48208       -0.29281
C          1.27962       -3.50601       -0.01600
C          1.36613       -4.05742        1.38813
C          2.58996       -4.94846        1.65623
C          2.83454       -5.91521        0.49480
C          3.06528       -5.13999       -0.81009
C          2.05572       -4.04520       -1.04643
C          1.89369       -3.57260       -2.34247
C          0.99885       -2.57479       -2.62529
H          0.89530       -2.20925       -3.63208
H          2.49372       -3.99474       -3.13083
H          4.06730       -4.69494       -0.80347
H          3.68161       -6.58152        0.71164
H          3.47645       -4.31624        1.79261
H          1.36583       -3.22052        2.09517
C         -0.66125       -2.11673        0.73108
C         -0.25821       -1.50564        1.94900
C         -1.20243       -1.37041        2.97098
C         -2.49308       -1.79956        2.80201
C         -2.90939       -2.38690        1.61345
C         -4.33646       -2.87109        1.52103
C         -4.78427       -3.24654        0.09938
C         -3.69189       -4.03951       -0.62252
C         -2.39692       -3.21932       -0.71781
C         -1.99312       -2.54535        0.57161
H         -1.57358       -3.85944       -1.05859
H         -4.03160       -4.35260       -1.61997
H         -5.00282       -2.33479       -0.46985
H         -4.99884       -2.10218        1.93796
H         -3.20502       -1.68349        3.60164
H         -0.90586       -0.89847        3.89122
N          1.03373       -0.99355        2.14028
P          1.60291        0.21594        0.99256
C          2.61364       -0.34741       -0.36362
C          2.43721        0.23723       -1.59281
C          3.25541       -0.12599       -2.64674
C          4.25761       -1.07059       -2.46708
C          4.44019       -1.62234       -1.20547
C          3.61874       -1.25953       -0.15315
H          3.75367       -1.68179        0.82998
H          5.22837       -2.33957       -1.05305
C          5.14362       -1.46061       -3.59799
H          3.11700        0.32074       -3.61633
H          1.65436        0.96557       -1.72082
C          2.54324        1.52177        1.79021
C          3.25260        1.26367        2.93829
C          3.97936        2.27692        3.53698
C          3.99743        3.55278        2.98917
C          3.29030        3.78669        1.81748
C          2.56507        2.77244        1.21905
H          2.01294        2.95148        0.30936
H          3.30972        4.76883        1.37685
C          4.79520        4.63928        3.62200
H          4.53827        2.08179        4.43622
H          3.24251        0.27128        3.35902
H          1.17466       -0.54813        3.03776
H         -0.92954       -0.88280       -2.93674
C         -0.61898        1.90596       -2.18599
C         -0.91639        3.19102       -1.80005
C         -0.54691        4.25877       -2.59498
C          0.11904        4.04791       -3.79407
C          0.41339        2.74498       -4.17138
C          0.03923        1.68002       -3.37272
H          0.27651        0.67164       -3.66707
H          0.94106        2.56960       -5.09334
C          0.54489        5.19904       -4.63738
H         -0.77287        5.26533       -2.28679
H         -1.44120        3.35301       -0.87385
C         -2.87913        0.50868       -1.08424
C         -3.55585        0.74214       -2.25799
C         -4.93951        0.73507       -2.26948
C         -5.65408        0.50576       -1.10170
C         -4.95277        0.26377        0.07078
C         -3.57042        0.25560        0.07498
H         -3.02344        0.06775        0.98475
H         -5.49693        0.08410        0.98200
C         -7.14265        0.47646       -1.11123
H         -5.47272        0.91201       -3.18784
H         -2.99837        0.93103       -3.16217
Cl        -2.32962        2.60561        0.99095
H          3.05502       -5.82610       -1.66674
H          2.47330       -5.49791        2.60106
H          1.96345       -6.57249        0.37926
H          0.44690       -4.61759        1.59650
H         -3.49430       -4.96854       -0.07316
H         -2.50846       -2.44792       -1.48858
H         -4.44904       -3.73924        2.18146
H         -5.72685       -3.81161        0.12159
H          6.03727       -0.83563       -3.62376
H          5.46132       -2.50037       -3.50715
H          4.63027       -1.35474       -4.55478
H          4.86764        4.49711        4.70113
H          5.80757        4.66334        3.21644
H          4.33895        5.61467        3.44742
H         -0.16153        6.02662       -4.55856
H          1.52578        5.56307       -4.32867
H          0.60646        4.91602       -5.68913
H         -7.54429        1.08404       -1.92332
H         -7.50901       -0.54299       -1.24008
H         -7.54851        0.86467       -0.17601
