111
-148.55661816
P         -2.60661        1.99752        0.99367
P          0.11617        0.46241        0.48815
C         -1.51065        1.62676        2.38975
C         -0.30439        1.00247        2.15610
C         -3.46229        3.62553        1.19970
C         -2.86026        4.68605        0.30396
C         -1.87722        1.95362        3.67967
H         -2.83032        2.42281        3.86052
C         -1.02678        1.66130        4.73219
H         -1.31216        1.91615        5.73978
C          0.18493        1.04124        4.49394
H          0.84547        0.81150        5.31374
C          0.54541        0.70628        3.20114
H          1.47934        0.20577        2.99824
Pd        -1.35005        1.60264       -0.89896
Cl        -3.01308        2.46327       -2.12884
Cl         0.05491        1.15024       -2.59387
C         -4.93108        3.27912        0.89244
C         -4.06757        0.86808        0.87278
H         -2.94346        4.40054       -0.74550
H         -3.36773        5.64594        0.42491
H         -1.79934        4.83272        0.52023
H         -5.12060        3.46418       -0.17394
H         -5.60748        3.95696        1.43513
H         -4.12492        0.55785       -0.17928
C         -5.24887        1.79243        1.22280
C         -3.91443       -0.33376        1.77957
H         -3.35018        3.90531        2.25484
H         -5.46873        1.69459        2.29483
H         -6.16091        1.46113        0.70335
H         -3.78863       -0.02218        2.81813
H         -4.78981       -0.98552        1.73111
H         -3.03815       -0.92507        1.50626
C         -1.16600       -3.86347       -0.13354
C         -1.03534       -3.35608        1.18482
C         -0.63529       -2.04028        1.34529
C         -0.43512       -1.22681        0.26154
C         -0.65278       -1.68514       -1.00976
C         -1.06406       -2.98524       -1.24259
O         -1.35803       -5.25504       -0.34277
C         -1.28098       -4.22036        2.43112
H         -0.46214       -1.63340        2.32574
H         -0.48155       -1.00387       -1.82485
C         -1.36507       -3.41981       -2.68495
C          4.54681        0.66989       -0.52501
C          3.98222       -0.53747       -0.04019
C          2.62856       -0.55536        0.24956
C          1.86571        0.57811        0.14264
C          2.42772        1.77336       -0.21960
C          3.77603        1.86129       -0.52685
O          5.86856        0.67671       -1.04480
C          4.79563       -1.82963        0.13325
H          2.14234       -1.46866        0.54668
H          1.78890        2.63753       -0.28087
C          4.36781        3.22856       -0.90309
C          0.02828       -4.91878        2.82888
C         -1.75493       -3.35020        3.61776
C         -2.38294       -5.26368        2.17243
C         -1.91490       -2.22927       -3.50486
C         -0.07008       -3.91583       -3.34578
C         -2.43880       -4.52213       -2.72221
C         -0.14927       -5.98757       -0.50089
H          0.80733       -4.18612        3.03889
H         -0.11023       -5.52983        3.72045
H          0.38829       -5.56479        2.03182
H         -2.61869       -2.74825        3.33744
H         -2.04381       -3.97434        4.46309
H         -0.96963       -2.68220        3.96843
H         -2.08746       -5.96953        1.40012
H         -2.60151       -5.83479        3.07440
H         -3.30231       -4.77782        1.84721
H         -1.15604       -1.46591       -3.66918
H         -2.25374       -2.55882       -4.48665
H         -2.76046       -1.76629       -2.99677
H          0.68421       -3.12923       -3.35218
H          0.34479       -4.76692       -2.81084
H         -0.24942       -4.22016       -4.37659
H         -2.69670       -4.78353       -3.74818
H         -2.09596       -5.42781       -2.22852
H         -3.34605       -4.19056       -2.21825
H          0.71268       -5.32690       -0.39878
H         -0.09725       -6.77240        0.25360
H         -0.13126       -6.45862       -1.48348
C          5.94393        0.39093       -2.43599
C          4.73694       -2.64430       -1.16806
C          6.25749       -1.52085        0.50345
C          4.21337       -2.69056        1.27829
C          4.22688        3.44054       -2.41819
C          3.61795        4.36709       -0.17474
C          5.84652        3.32939       -0.48671
H          3.70607       -2.89162       -1.42113
H          5.15699       -2.08698       -2.00185
H          5.29373       -3.57597       -1.07106
H          6.76327       -0.98030       -0.29255
H          6.30402       -0.90924        1.40387
H          6.81750       -2.43757        0.68652
H          4.11745       -2.10571        2.19274
H          3.23385       -3.09307        1.02388
H          4.86158       -3.54036        1.49113
H          4.76277        2.67569       -2.97490
H          3.17994        3.39424       -2.71720
H          4.62111        4.41194       -2.71540
H          2.59596        4.47254       -0.53555
H          3.58673        4.18558        0.89928
H          4.11425        5.32344       -0.33820
H          5.95870        3.13696        0.57975
H          6.24591        4.32134       -0.69649
H          6.46005        2.60885       -1.02155
H          6.55384       -0.49817       -2.59497
H          4.94610        0.22580       -2.84452
H          6.41628        1.22443       -2.95558
