111
-148.55216808
P         -2.52168        2.12124        0.98471
P          0.10432        0.38739        0.53288
C         -1.44034        1.72144        2.38791
C         -0.28523        0.99946        2.18001
C         -3.32979        3.76913        1.23336
C         -3.12071        4.67436        0.03978
C         -1.77468        2.12578        3.66488
H         -2.68621        2.67693        3.82803
C         -0.94588        1.81042        4.72793
H         -1.20738        2.12610        5.72473
C          0.21362        1.09014        4.51400
H          0.85760        0.84281        5.34181
C          0.54342        0.67991        3.23472
H          1.43749        0.10490        3.04975
Pd        -1.29596        1.55126       -0.89349
Cl        -2.91562        2.42748       -2.16634
Cl         0.09050        0.95475       -2.56251
C         -4.80568        3.39566        1.48502
C         -4.01297        1.03040        0.88758
H         -3.56574        5.65932        0.19967
H         -2.05823        4.81237       -0.17395
H         -3.58312        4.24714       -0.85097
H         -5.45639        4.19969        1.11122
H         -4.99856        3.33817        2.56639
H         -3.93011        0.46129       -0.04873
C         -5.17850        2.03863        0.82410
C         -4.06940        0.09227        2.07318
H         -2.87380        4.21369        2.12815
H         -6.06713        1.60402        1.30468
H         -5.46302        2.21249       -0.22416
H         -4.93997       -0.56620        2.02407
H         -3.17453       -0.53181        2.12375
H         -4.13096        0.65436        3.00690
C         -1.14065       -3.95930       -0.00890
C         -1.18346       -3.38507        1.29025
C         -0.79824       -2.06236        1.43580
C         -0.46437       -1.30098        0.34663
C         -0.55012       -1.81504       -0.91958
C         -0.92368       -3.12838       -1.13969
O         -1.22625       -5.36612       -0.16984
C         -1.63019       -4.14800        2.54888
H         -0.73670       -1.61617        2.41315
H         -0.30307       -1.16946       -1.74503
C         -1.07874       -3.59087       -2.59756
C          4.47947        0.68193       -0.68410
C          3.88227       -0.58902       -0.48624
C          2.54956       -0.63357       -0.11537
C          1.84012        0.51414        0.12370
C          2.43908        1.74254        0.03348
C          3.77083        1.85979       -0.33166
O          5.76999        0.77548       -1.26984
C          4.63469       -1.90997       -0.71109
H          2.03699       -1.57561       -0.02801
H          1.84169        2.61497        0.23577
C          4.40950        3.25648       -0.38458
C         -0.40239       -4.45418        3.42236
C         -2.61927       -3.27779        3.35520
C         -2.36087       -5.45918        2.21068
C         -1.82059       -4.93355       -2.71110
C         -1.90838       -2.54725       -3.37896
C          0.31186       -3.71297       -3.24312
C          0.03994       -6.00214       -0.11186
H          0.31267       -5.07913        2.89078
H          0.10888       -3.53630        3.71106
H         -0.69313       -4.97699        4.33318
H         -2.99824       -3.82146        4.22022
H         -2.15067       -2.36740        3.72521
H         -3.47156       -2.99444        2.73844
H         -2.75303       -5.93373        3.10989
H         -3.19380       -5.27131        1.53406
H         -1.69355       -6.16962        1.72861
H         -1.24477       -5.74126       -2.26572
H         -2.78094       -4.88624       -2.19890
H         -2.00297       -5.19465       -3.75327
H         -2.87035       -2.38049       -2.89523
H         -1.39592       -1.58908       -3.44617
H         -2.09787       -2.88508       -4.39738
H          0.92598       -4.44398       -2.72055
H          0.23199       -4.02369       -4.28444
H          0.83732       -2.75881       -3.21766
H         -0.08987       -7.07518       -0.25418
H          0.69134       -5.61147       -0.89198
H          0.50549       -5.82131        0.85557
C          5.75610        0.86143       -2.68939
C          6.12706       -1.76414       -0.36367
C          4.06624       -3.02423        0.19829
C          4.46881       -2.34564       -2.17499
C          3.75912        4.19374        0.65840
C          5.91191        3.19498       -0.05426
C          4.19722        3.85742       -1.78249
H          6.61885       -1.04810       -1.01724
H          6.24994       -1.41859        0.66224
H          6.64813       -2.71572       -0.46599
H          4.68037       -3.92253        0.13899
H          4.04451       -2.70205        1.23905
H          3.05651       -3.30919       -0.09429
H          3.41514       -2.47716       -2.41982
H          4.87570       -1.60293       -2.85673
H          4.97935       -3.29004       -2.36183
H          3.77729        3.74210        1.64994
H          4.29356        5.14193        0.71267
H          2.72558        4.42445        0.40475
H          6.34880        4.19298       -0.02948
H          6.07215        2.73019        0.91797
H          6.45830        2.61593       -0.79437
H          4.66024        3.24285       -2.55058
H          4.62566        4.85722       -1.84743
H          3.13455        3.92908       -2.01317
H          6.23666        1.78736       -3.00482
H          6.31586        0.02731       -3.11211
H          4.73091        0.83815       -3.06128
