111
-148.55646156
P         -2.57539        2.04477        0.83035
P          0.12033        0.42790        0.47662
C         -1.48407        1.79691        2.25646
C         -0.28993        1.13040        2.08656
C         -3.41380        3.69414        0.87663
C         -2.80821        4.65057       -0.12733
C         -1.84236        2.25868        3.50683
H         -2.78663        2.76063        3.63961
C         -0.99490        2.05965        4.58319
H         -1.27348        2.42043        5.55986
C          0.20501        1.39712        4.40841
H          0.86335        1.24013        5.24694
C          0.55649        0.92617        3.15616
H          1.48146        0.39180        3.00503
Pd        -1.33231        1.45340       -1.01749
Cl        -2.96988        2.19897       -2.34915
Cl         0.08608        0.77376       -2.62701
C         -4.88862        3.33490        0.61575
C         -4.04815        0.92491        0.81807
H         -1.74426        4.80743        0.06567
H         -2.90226        4.25935       -1.14124
H         -3.30526        5.62313       -0.10251
H         -5.08623        3.42006       -0.46174
H         -5.55365        4.06799        1.09719
H         -4.11434        0.52131       -0.20131
C         -5.21786        1.88966        1.08806
C         -3.90102       -0.19108        1.82911
H         -3.29021        4.07887        1.89683
H         -5.42944        1.89588        2.16619
H         -6.13726        1.51982        0.60917
H         -4.78150       -0.83766        1.84202
H         -3.02973       -0.81080        1.60745
H         -3.76901        0.21184        2.83500
C         -1.14716       -3.94534        0.26588
C         -1.03160       -3.31225        1.53258
C         -0.62933       -1.98728        1.56913
C         -0.42734       -1.27767        0.41461
C         -0.66200       -1.84997       -0.80703
C         -1.06281       -3.16862       -0.91976
O         -1.26014       -5.35686        0.18176
C         -1.33083       -4.00984        2.87030
H         -0.45922       -1.49489        2.51080
H         -0.50997       -1.24825       -1.68641
C         -1.40004       -3.69316       -2.32496
C          4.50995        0.75889       -0.68978
C          3.79956       -0.44593       -0.92238
C          2.46650       -0.49880       -0.55509
C          1.85911        0.55499        0.07529
C          2.56562        1.68622        0.38898
C          3.90673        1.80242        0.05933
O          5.80809        0.93480       -1.23839
C          4.42883       -1.67154       -1.60279
H          1.87376       -1.36878       -0.77565
H          2.04863        2.48506        0.89209
C          4.67611        3.06114        0.49034
C         -0.01013       -4.28302        3.60872
C         -2.21781       -3.09379        3.74248
C         -2.09813       -5.33034        2.68404
C         -2.15891       -5.03052       -2.28459
C         -2.31405       -2.67496       -3.04348
C         -0.10158       -3.86064       -3.13199
C          0.00001       -6.00376        0.11542
H          0.53275       -3.35619        3.79171
H         -0.19335       -4.76015        4.57112
H          0.63692       -4.93744        3.02765
H         -3.13952       -2.84093        3.21960
H         -2.48750       -3.58895        4.67496
H         -1.71185       -2.16572        4.00319
H         -2.38356       -5.75781        3.64497
H         -3.00392       -5.16934        2.10051
H         -1.49268       -6.06814        2.16294
H         -1.53714       -5.82456       -1.87801
H         -3.04753       -4.94913       -1.65960
H         -2.47153       -5.33518       -3.28308
H         -3.20588       -2.47366       -2.45070
H         -1.80706       -1.72771       -3.21934
H         -2.63338       -3.05593       -4.01306
H          0.56523       -4.57978       -2.65998
H         -0.31335       -4.21123       -4.14169
H          0.43252       -2.91421       -3.21129
H          0.55659       -5.65112       -0.75148
H          0.57778       -5.78975        1.01313
H         -0.15226       -7.08012        0.03308
C          5.81205        1.50686       -2.54039
C          3.76408       -2.97545       -1.10239
C          4.21912       -1.56850       -3.12124
C          5.92928       -1.77945       -1.27737
C          4.09885        3.62803        1.80757
C          6.15939        2.74284        0.75306
C          4.55009        4.13363       -0.60216
H          3.77527       -3.02363       -0.01382
H          2.73154       -3.05827       -1.43840
H          4.29313       -3.84950       -1.48149
H          4.63953       -2.43340       -3.63366
H          3.15698       -1.51714       -3.35993
H          4.69105       -0.67587       -3.52469
H          6.36051       -2.68121       -1.71138
H          6.48270       -0.92947       -1.66837
H          6.08648       -1.81279       -0.19981
H          4.72004        4.44041        2.18413
H          3.09665        4.03069        1.66893
H          4.05564        2.85621        2.57567
H          6.68951        3.62101        1.12084
H          6.25626        1.95207        1.49621
H          6.66108        2.41204       -0.15285
H          4.96842        3.78786       -1.54429
H          5.07331        5.04574       -0.31627
H          3.50410        4.38454       -0.77671
H          6.28179        0.81780       -3.24201
H          4.79245        1.71804       -2.86547
H          6.39037        2.43061       -2.53204
