59
-75.80717754
Cl         1.61510        0.56171        2.36406
P          1.60940       -0.10694       -0.87744
P         -1.57636       -0.14448       -0.78317
C          0.59239        0.24007       -2.37777
H          0.33830        1.30279       -2.39451
H          1.19285        0.03087       -3.26879
C         -0.64739       -0.60388       -2.30799
H         -0.39214       -1.66550       -2.24852
H         -1.30070       -0.46442       -3.17519
C          2.61906       -1.63083       -1.21807
H          2.44504       -1.83273       -2.28370
C          2.98892        1.11010       -0.63801
H          3.09075        1.23627        0.44683
C         -3.01968       -1.25839       -0.47446
H         -3.24264       -1.17536        0.59658
C         -2.51272        1.42763       -1.09006
H         -2.12226        1.84338       -2.02670
C          4.07362       -1.16788       -1.02026
H          4.41229       -1.44411       -0.01458
H          4.74271       -1.70520       -1.70922
C          4.21285        0.36667       -1.19943
H          4.31223        0.60522       -2.26741
H          5.13559        0.73698       -0.72707
C         -4.12376       -0.57586       -1.29880
H         -4.05139       -0.92388       -2.33908
H         -5.11765       -0.89493       -0.94823
C         -3.98199        0.97158       -1.25063
H         -4.56297        1.35533       -0.40122
H         -4.43309        1.43230       -2.14181
C          2.20668       -2.84862       -0.39235
H          2.77320       -3.72344       -0.74078
H          1.15846       -3.08164       -0.61807
C          2.73175        2.46226       -1.29258
H          3.65766        3.05363       -1.26675
H          2.52005        2.30751       -2.35841
C         -2.74674       -2.71191       -0.83640
H         -3.69261       -3.27126       -0.82939
H         -2.39136       -2.76113       -1.87353
C         -2.30492        2.40866        0.05837
H         -2.72178        1.96972        0.97500
H         -1.23175        2.51263        0.26136
C          2.38772       -2.69744        1.11188
H          1.90450       -1.79597        1.48589
H          3.43995       -2.63279        1.39192
H          1.96472       -3.54292        1.65953
C          1.60443        3.23718       -0.63079
H          1.81741        3.42123        0.42397
H          0.66874        2.68126       -0.67427
H          1.43364        4.20507       -1.10754
C         -1.74754       -3.36361        0.10628
H         -1.49892       -4.38388       -0.19430
H         -2.13582       -3.40462        1.12580
H         -0.82006       -2.79254        0.14755
C         -2.91853        3.77589       -0.20460
H         -2.75903        4.46315        0.62938
H         -2.48706        4.23535       -1.09596
H         -3.99506        3.70492       -0.36909
Cl        -1.56696       -0.05435        2.39773
Pd         0.05893        0.00481        0.84961
