111
-148.55093789
P         -2.65010        1.96197       -0.46723
P          0.05777        0.55543        0.38204
C         -1.93080        2.30145        1.16123
C         -0.73767        1.70980        1.51542
C         -3.23748        3.52182       -1.27405
C         -2.46009        3.81717       -2.53798
C         -2.56372        3.15597        2.04109
H         -3.49073        3.62490        1.75423
C         -2.00333        3.40623        3.28177
H         -2.49795        4.07165        3.97039
C         -0.81150        2.80479        3.63788
H         -0.37607        2.99776        4.60450
C         -0.17707        1.95292        2.75164
H          0.75144        1.47274        3.01632
Pd        -1.10454        0.68097       -1.61578
Cl        -2.48858        0.69194       -3.38136
Cl         0.48647       -0.54051       -2.62329
C         -4.74370        3.26551       -1.50158
C         -4.22471        0.99181       -0.44177
H         -2.61055        3.02864       -3.27627
H         -2.77829        4.75773       -2.99387
H         -1.38764        3.88280       -2.33926
H         -5.04785        3.70793       -2.46112
H         -5.33290        3.79207       -0.73660
H         -3.98093       -0.02087       -0.79141
C         -5.09310        1.75011       -1.46626
C         -4.82574        0.95043        0.94656
H         -3.08171        4.32425       -0.54013
H         -6.15730        1.60127       -1.23083
H         -4.94556        1.31987       -2.46795
H         -5.73751        0.34886        0.97165
H         -4.12388        0.53476        1.67166
H         -5.08703        1.95520        1.28273
C         -1.18147       -3.73825        1.23996
C         -0.01421       -3.48042        0.47670
C          0.33567       -2.16157        0.24182
C         -0.37968       -1.13100        0.79138
C         -1.45196       -1.37487        1.60871
C         -1.85241       -2.67067        1.89071
O         -1.70416       -5.05669        1.31573
C          0.83862       -4.59601       -0.14649
H          1.15813       -1.91683       -0.40793
H         -1.98046       -0.53276        2.01900
C         -3.02083       -2.89829        2.86257
C          4.57408        1.09212        0.12136
C          3.74560        1.55278       -0.93356
C          2.37407        1.41438       -0.79865
C          1.83129        0.76708        0.28004
C          2.63367        0.21985        1.24756
C          4.01240        0.34013        1.18438
O          5.95995        1.40387        0.12880
C          4.30742        2.18886       -2.21522
H          1.70614        1.80002       -1.54949
H          2.16310       -0.31260        2.05606
C          4.87770       -0.31929        2.27001
C          2.31755       -4.15820       -0.24832
C          0.80921       -5.87053        0.71622
C          0.31835       -4.89734       -1.56028
C         -2.85957       -4.22666        3.62419
C         -3.07144       -1.77683        3.92530
C         -4.34219       -2.89583        2.07911
C         -2.63784       -5.36704        0.28862
H          2.94411       -4.98606       -0.57937
H          2.45279       -3.34942       -0.96470
H          2.68840       -3.82521        0.72011
H          1.13578       -5.65308        1.73262
H         -0.19166       -6.29085        0.77096
H          1.46596       -6.63696        0.30541
H          0.36675       -4.00601       -2.18553
H          0.91107       -5.67749       -2.03706
H         -0.71733       -5.22790       -1.53706
H         -1.90451       -4.25531        4.14765
H         -3.65363       -4.35579        4.35923
H         -2.89532       -5.07824        2.94943
H         -3.33944       -0.81627        3.48918
H         -3.81727       -2.00015        4.68785
H         -2.10716       -1.67010        4.42150
H         -5.19317       -3.02380        2.74759
H         -4.47138       -1.95634        1.54332
H         -4.36755       -3.69863        1.34628
H         -2.26534       -6.20069       -0.30633
H         -3.58651       -5.66491        0.73492
H         -2.79450       -4.50173       -0.35676
C          6.27321        2.64784        0.74230
C          5.69033        1.60839       -2.56296
C          3.38217        1.89164       -3.41820
C          4.40119        3.71090       -2.03175
C          4.16593       -1.55415        2.86700
C          6.21419       -0.81099        1.68491
C          5.13277        0.68946        3.39998
H          6.05844        2.01058       -3.50646
H          6.42452        1.84386       -1.79675
H          5.63865        0.52389       -2.65344
H          3.18227        0.82342       -3.49849
H          2.42926        2.41165       -3.33354
H          3.84205        2.21762       -4.35076
H          4.78876        4.18926       -2.93087
H          3.41964        4.13450       -1.82034
H          5.05748        3.96908       -1.20414
H          3.28290       -1.27335        3.43919
H          3.86210       -2.24326        2.08020
H          4.82820       -2.09230        3.54482
H          6.04082       -1.49347        0.85349
H          6.81448        0.01756        1.31699
H          6.80248       -1.33525        2.43759
H          4.19217        1.02477        3.83641
H          5.65888        1.56731        3.03338
H          5.73352        0.24423        4.19267
H          6.74179        3.30891        0.01361
H          5.36993        3.11807        1.13301
H          6.97994        2.48453        1.55580
