100
-131.97495817
C         -1.54140        3.89205       -1.35227
C         -2.31181        2.64626       -1.43848
C         -0.15775        3.56979       -1.39715
C          0.00124        2.09634       -1.53225
C          1.14562        1.51725       -2.29482
C         -1.39723        1.54455       -1.53831
C         -1.82902        0.16239       -1.99934
C         -0.95575       -0.44379       -3.08067
Cl         1.02918       -0.42519        2.76655
Cl        -1.76901       -1.58999        2.33512
C          3.19862        0.51348       -3.91658
C          2.45482        1.59665       -4.34231
C          2.93452       -0.05899       -2.68062
C          1.45423        2.09482       -3.54603
C          1.92092        0.41442       -1.88161
H         -3.39829        2.58175       -1.52147
H          0.65933        4.29302       -1.45239
H          0.00330       -0.75974       -2.67113
H         -1.42076       -1.32073       -3.53703
H         -0.75852        0.27527       -3.87919
H          3.99251        0.12547       -4.53357
H          2.66178        2.05055       -5.29795
H          3.55457       -0.87031       -2.33614
H          0.86871        2.93377       -3.88077
H         -1.96177        4.90110       -1.32902
P          1.82088       -0.29504       -0.22597
H         -2.84430        0.26086       -2.40253
P         -2.01514       -0.99000       -0.56535
H         -2.94991       -2.89283       -1.75876
C         -1.84232       -3.84837       -0.17137
C         -2.03029       -2.72741       -1.20100
C         -3.08554       -4.07034        0.69215
H         -3.36979        0.31227        0.91393
C         -4.80788       -0.20725       -0.59522
C         -3.59724       -0.54296        0.28021
H         -4.54232        0.66144       -1.22182
C         -5.19656       -1.35741       -1.52365
H          3.56160       -1.92103       -0.57967
H          2.69998        0.62852        1.82973
C          3.61397        3.18477        1.29561
C          2.73457        2.26653        0.42765
C          2.95802        0.78929        0.77762
C          4.43818        0.42518        0.58387
C          5.35042        1.33570        1.43251
C          5.10170        2.82469        1.12186
H          3.33038        3.06815        2.34892
H          3.43229        4.24185        1.05594
H          2.99168        2.41746       -0.62813
H          1.67303        2.52756        0.50433
H          4.61353       -0.63051        0.82711
H          4.69221        0.53100       -0.47756
H          5.15599        1.15033        2.49624
H          6.40751        1.07717        1.27878
H          5.40782        3.03587        0.08950
H          5.73392        3.46583        1.75236
C          2.38152       -4.31826       -1.29034
C          1.76528       -2.90633       -1.22601
C          2.52606       -2.01809       -0.23444
C          2.54830       -2.66170        1.16095
C          3.17278       -4.06961        1.11083
C          2.42010       -4.96542        0.10771
H          3.40263       -4.24818       -1.68533
H          1.83588       -4.95216       -2.00298
H          0.72337       -2.97404       -0.89823
H          1.73006       -2.44022       -2.22003
H          3.06979       -2.01480        1.87889
H          1.52217       -2.74066        1.53701
H          4.22463       -3.98934        0.80979
H          3.18650       -4.52595        2.11051
H          1.39415       -5.12268        0.46336
H          2.87132       -5.96667        0.06250
H         -1.01132       -3.55562        0.49485
C         -1.45436       -5.15486       -0.87254
H         -3.85547       -1.35377        0.95682
C         -5.99529        0.20153        0.28251
H         -1.22394       -2.77860       -1.93324
H         -3.30049       -3.21416        1.32784
H         -2.96002       -4.93288        1.34859
H         -3.96156       -4.25704        0.07050
H         -1.26136       -5.95342       -0.15448
H         -2.25839       -5.48973       -1.52865
H         -0.56154       -5.03428       -1.48690
H         -4.42343       -1.55944       -2.26451
H         -5.36822       -2.27186       -0.95527
H         -6.11530       -1.13323       -2.06822
H         -6.30034       -0.62569        0.92419
H         -5.74406        1.04341        0.92970
H         -6.85965        0.48741       -0.31896
Fe        -1.08596        2.68664        0.17225
C         -2.55239        2.85751        1.59952
C         -1.81437        4.09978        1.45705
C         -0.41066        3.80661        1.68916
C         -0.29725        2.40647        2.04853
C         -1.62019        1.82183        1.99509
H         -3.63512        2.74432        1.50691
H         -2.23803        5.07769        1.21565
H          0.40564        4.53369        1.67881
H          0.60369        1.88693        2.37733
H         -1.85830        0.79279        2.26975
Pd        -0.18924       -0.81572        0.89276
