171
-217.84708955
P         -1.61819        0.44725       -0.30531
P          1.61446       -0.39575       -0.32883
C         -0.88755        1.39724       -1.64707
C          0.87206       -1.31920       -1.67928
C         -0.09493        0.78984       -2.61474
C          0.53104        1.59749       -3.58364
C          0.31130        2.96460       -3.57094
C         -0.50056        3.54475       -2.61988
C         -1.09003        2.75596       -1.65161
C          1.06581       -2.67870       -1.71002
C          0.47363       -3.44329       -2.69612
C         -0.32878       -2.83762       -3.63952
C         -0.54067       -1.46912       -3.62388
C          0.08437       -0.68669       -2.63389
Cl         1.60550        0.36516        2.85708
Cl        -1.65744       -0.34675        2.77728
C         -1.40675       -0.84992       -4.66467
C          1.41385        1.01052       -4.62903
H         -0.67164        4.60878       -2.62889
H         -1.71322        3.20320       -0.89410
H          1.68385       -3.14442       -0.95922
H          0.63745       -4.50800       -2.72713
H          0.78609        3.57654       -4.31932
H         -0.80207       -3.43054       -4.40396
C         -3.77670       -3.35234       -1.47484
C         -2.81567       -3.40319       -0.47245
C         -2.15073       -2.22721       -0.15510
C         -2.43889       -1.05978       -0.81670
C         -3.39167       -1.02422       -1.80484
C         -4.08571       -2.17806       -2.15155
H         -4.31725       -4.24468       -1.72832
H         -1.41554       -2.21684        0.63107
H         -3.59491       -0.08568       -2.29173
C         -4.44283        3.02423        2.12868
C         -4.97445        2.03187        1.31464
C         -4.08954        1.25832        0.57496
C         -2.73764        1.48374        0.64653
C         -2.22919        2.47002        1.45531
C         -3.07643        3.25657        2.22505
H         -5.11292        3.62889        2.71176
H         -4.44777        0.46462       -0.05574
H         -1.16253        2.60913        1.49443
C          4.35151       -3.11696        2.05096
C          2.97736       -3.24597        2.21057
C          2.15806       -2.41620        1.45636
C          2.70001       -1.47234        0.61928
C          4.06055       -1.34013        0.49601
C          4.91784       -2.16903        1.20782
H          5.00203       -3.77419        2.59752
H          1.08706       -2.49127        1.52789
H          4.44831       -0.58100       -0.15904
C          3.89094        3.33753       -1.48428
C          2.92544        3.41618       -0.48784
C          2.22230        2.26069       -0.17758
C          2.48384        1.08473       -0.83514
C          3.44036        1.02201       -1.81828
C          4.16888        2.15554       -2.16115
H          4.45854        4.21395       -1.73396
H          1.47303        2.27394        0.59517
H          3.61719        0.07900       -2.30683
Pd         0.01333        0.04978        1.31402
C         -2.70680       -4.42815        1.81263
C         -2.48799       -4.68336        0.30880
C         -1.02023       -5.06924        0.05454
C         -3.38413       -5.86064       -0.12019
H         -3.74020       -4.14211        2.00699
H         -2.48776       -5.32185        2.39660
H         -2.06724       -3.62635        2.17866
H         -0.74008       -5.94935        0.63303
H         -0.86172       -5.29464       -0.99925
H         -0.34620       -4.25851        0.32615
H         -3.14481       -6.75661        0.45252
H         -4.43680       -5.63296        0.04671
H         -3.24372       -6.09700       -1.17479
C         -6.54225       -2.50969       -2.49697
C         -5.21146       -2.17531       -3.19583
C         -4.91757       -3.23118       -4.27824
C         -5.35273       -0.80035       -3.87788
H         -6.76125       -1.78078       -1.71708
H         -7.36891       -2.50315       -3.20717
H         -6.50774       -3.49471       -2.03279
H         -5.68804       -3.22299       -5.04905
H         -3.95927       -3.03863       -4.75853
H         -4.88284       -4.23473       -3.85631
H         -5.60789       -0.02693       -3.15378
H         -4.42949       -0.51217       -4.37889
H         -6.14310       -0.82047       -4.62809
C         -7.18709        3.09381        0.79592
C         -6.49184        1.80390        1.26826
C         -6.99007        1.42838        2.67572
C         -6.86546        0.66506        0.29811
H         -6.99675        3.92013        1.47976
H         -6.82674        3.38568       -0.19039
H         -8.26628        2.95484        0.73368
H         -6.79446        2.22650        3.39087
H         -8.06327        1.23861        2.67241
H         -6.48859        0.52917        3.03310
H         -7.94497        0.51731        0.27164
H         -6.53872        0.89157       -0.71661
H         -6.41183       -0.27705        0.60561
C         -3.04427        4.05439        4.60275
C         -2.54473        4.33970        3.17407
C         -3.05209        5.71533        2.70708
C         -1.00365        4.36610        3.19980
H         -2.65501        4.79006        5.30633
H         -4.13162        4.08488        4.65801
H         -2.71962        3.06735        4.93169
H         -2.68170        6.50891        3.35581
H         -2.71595        5.92441        1.69154
H         -4.14072        5.75765        2.71448
H         -0.60075        4.60612        2.21715
H         -0.64010        5.12128        3.89644
H         -0.60009        3.40380        3.51471
C          3.15883       -4.26228        4.50978
C          2.39705       -4.29492        3.17002
C          2.53214       -5.68549        2.52806
C          0.90872       -4.02069        3.46757
H          4.20200       -4.54942        4.38682
H          3.13195       -3.26210        4.94184
H          2.71291       -4.95107        5.22714
H          1.99709       -5.72537        1.57930
H          3.57717       -5.92451        2.33233
H          2.12476       -6.45852        3.17941
H          0.52666       -4.71744        4.21341
H          0.76727       -3.01002        3.85050
H          0.29955       -4.13800        2.57352
C          7.01268       -3.39017        0.56824
C          6.44452       -2.05792        1.09018
C          7.03872       -1.74484        2.47565
C          6.85883       -0.93563        0.11750
H          8.09526       -3.33496        0.45502
H          6.79033       -4.21000        1.25027
H          6.58365       -3.63693       -0.40279
H          6.81855       -2.53750        3.18969
H          8.12185       -1.63708        2.42058
H          6.62606       -0.81615        2.86933
H          7.94415       -0.86584        0.04617
H          6.47448       -1.12372       -0.88476
H          6.48774        0.03205        0.45480
C          1.19729        5.18202       -0.09853
C          2.61391        4.71268        0.27317
C          3.61236        5.83288       -0.07573
C          2.69196        4.45005        1.79019
H          0.45966        4.41167        0.12190
H          0.92355        6.08102        0.45337
H          1.13639        5.40735       -1.16268
H          4.63427        5.53072        0.15292
H          3.55674        6.09514       -1.13201
H          3.39688        6.73465        0.49733
H          1.95573        3.71313        2.10773
H          3.67785        4.07619        2.06530
H          2.50775        5.36423        2.35415
C          6.63875        2.38664       -2.48717
C          5.29997        2.11967       -3.19927
C          5.06033        3.20224       -4.26890
C          5.38574        0.75005       -3.90117
H          7.46920        2.35728       -3.19235
H          6.64152        3.36456       -2.00688
H          6.82202        1.63671       -1.71811
H          4.09828        3.05858       -4.75872
H          5.06716        4.20077       -3.83401
H          5.83535        3.17040       -5.03454
H          5.60786       -0.04390       -3.18860
H          4.45205        0.50756       -4.40721
H          6.17758        0.74856       -4.65011
H         -2.26235       -1.48703       -4.88858
H          0.89674        0.95053       -5.58756
H         -0.85369       -0.69902       -5.59256
H         -1.79175        0.11724       -4.33850
H          1.74248        0.00647       -4.35744
H          2.30534        1.62157       -4.77005
