59
-75.79816964
Cl         1.60173        0.76301        2.33672
P          1.63845       -0.10435       -0.81925
P         -1.54365       -0.22754       -0.78816
C          0.64388        0.26802       -2.32980
H          0.37436        1.32741       -2.31149
H          1.26890        0.09958       -3.21247
C         -0.58519       -0.59688       -2.32340
H         -0.31342       -1.65408       -2.32903
H         -1.22744       -0.41747       -3.19137
C          2.48881       -1.73265       -1.07708
H          2.13234       -2.07699       -2.05694
C          3.12497        0.98286       -0.67070
H          3.33923        1.05831        0.40249
C         -2.86506       -1.44591       -0.32440
H         -2.61940       -1.80482        0.68326
C         -2.58145        1.27447       -1.10276
H         -2.26732        1.68770       -2.06946
C          3.98731       -1.37175       -1.16244
H          4.49193       -1.68448       -0.24087
H          4.47317       -1.95022       -1.96240
C          4.21207        0.15144       -1.37409
H          4.19104        0.38231       -2.44848
H          5.21138        0.45572       -1.02627
C         -4.14347       -0.58096       -0.29801
H         -5.00539       -1.18242       -0.62125
H         -4.36730       -0.28069        0.73636
C         -4.00529        0.69031       -1.17859
H         -4.74080        1.44929       -0.87670
H         -4.25021        0.43871       -2.22126
C          2.12023       -2.74910        0.00383
H          2.51123       -3.73608       -0.28050
H          1.02795       -2.86242        0.01489
C          2.90906        2.37210       -1.25737
H          3.86999        2.90489       -1.28021
H          2.61086        2.27260       -2.30905
C         -2.94193       -2.63312       -1.28307
H         -3.92775       -3.10946       -1.18805
H         -2.90276       -2.25849       -2.31414
C         -2.38903        2.31647       -0.00611
H         -2.75098        1.89953        0.94288
H         -1.31435        2.48289        0.14592
C          2.60130       -2.39563        1.40510
H          2.18917       -3.07013        2.15930
H          2.30964       -1.38322        1.68156
H          3.68721       -2.44940        1.49217
C          1.88038        3.18569       -0.48732
H          0.90934        2.69001       -0.47943
H          1.73742        4.18041       -0.91540
H          2.17949        3.31433        0.55461
C         -1.85572       -3.67082       -1.04036
H         -1.90949       -4.49602       -1.75414
H         -1.93641       -4.09799       -0.03884
H         -0.86007       -3.23639       -1.11727
C         -3.07564        3.64260       -0.30028
H         -2.89722        4.37760        0.48796
H         -2.71517        4.07254       -1.23674
H         -4.15608        3.52503       -0.39519
Cl        -1.64288        0.08200        2.32625
Pd         0.05531        0.10355        0.85637
