105
-153.07069219
Cl        -0.06770        1.74700        3.13870
Pd        -0.61354        1.21047        1.01435
P         -1.26575        0.52728       -1.12601
N         -1.01103       -1.04789       -1.85551
C          0.05063       -1.92857       -1.62291
C          0.33511       -2.44426       -0.33067
C          1.36911       -3.39091       -0.17594
C          1.62430       -3.97783        1.19252
C          2.93366       -4.77398        1.31670
C          3.14636       -5.68087        0.10186
C          3.19406       -4.85164       -1.18950
C          2.09295       -3.82603       -1.28992
C          1.78467       -3.31848       -2.54564
C          0.78318       -2.39885       -2.71283
H          0.55384       -2.02156       -3.69404
H          2.34798       -3.65891       -3.39800
H          4.15927       -4.33758       -1.26397
H          4.06024       -6.28088        0.21722
H          3.77712       -4.07709        1.39887
H          1.62039       -3.16669        1.92923
C         -0.59863       -2.18679        0.79223
C         -0.14280       -1.55689        1.98258
C         -1.02347       -1.46304        3.06494
C         -2.30996       -1.92688        2.97211
C         -2.77737       -2.53590        1.81416
C         -4.19994       -3.04514        1.80636
C         -4.68074       -3.59981        0.45414
C         -3.56008       -4.35642       -0.26435
C         -2.35751       -3.43350       -0.50643
C         -1.91385       -2.68642        0.72718
H         -1.51216       -4.01216       -0.89946
H         -3.92079       -4.78804       -1.20877
H         -5.02111       -2.77451       -0.18311
H         -4.86141       -2.23503        2.13904
H         -2.97866       -1.82162        3.80967
H         -0.68955       -0.97356        3.96293
N          1.12148       -0.95893        2.07850
P          1.53465        0.23176        0.84478
C          2.67666       -0.37254       -0.38844
C          2.56472        0.06879       -1.68239
C          3.48637       -0.34098       -2.62809
C          4.53654       -1.17758       -2.27238
C          4.64257       -1.59444       -0.95185
C          3.71582       -1.18660       -0.00927
H          3.79486       -1.49752        1.02035
H          5.45405       -2.24183       -0.66655
C          5.50597       -1.65762       -3.29515
H          3.39117       -0.01592       -3.64995
H          1.75418        0.72621       -1.94398
C          2.36202        1.66573        1.54703
C          3.14278        1.54180        2.67063
C          3.78303        2.65428        3.18590
C          3.65471        3.89252        2.57072
C          2.86505        3.99464        1.43335
C          2.22626        2.88148        0.91892
H          1.61793        2.95628        0.03114
H          2.75067        4.95191        0.95413
C          4.31805        5.09605        3.14425
H          4.38604        2.56731        4.07357
H          3.25342        0.57764        3.13947
H          1.29890       -0.48721        2.95562
H         -1.32799       -0.93741       -2.81018
C         -0.49348        1.82219       -2.10197
C         -0.46539        3.10815       -1.61415
C          0.16308        4.10551       -2.33614
C          0.76463        3.82256       -3.55474
C          0.69873        2.52593       -4.04635
C          0.06992        1.53029       -3.32166
H          0.03687        0.52054       -3.69515
H          1.14747        2.29979       -4.99857
C          1.42785        4.89933       -4.34082
H          0.18834        5.11279       -1.95669
H         -0.94655        3.32970       -0.67450
C         -3.04260        0.77379       -1.18080
C         -3.59329        1.74427       -1.98396
C         -4.96507        1.91702       -2.01232
C         -5.79341        1.12365       -1.23010
C         -5.21888        0.14238       -0.43428
C         -3.84695       -0.03075       -0.41284
H         -3.39204       -0.77482        0.21905
H         -5.85261       -0.47790        0.17595
C         -7.27187        1.29641       -1.27057
H         -5.40111        2.67403       -2.64156
H         -2.94968        2.36514       -2.58550
Cl        -2.68533        1.96982        1.45435
H          3.14657       -5.51113       -2.06559
H          2.94673       -5.36053        2.24622
H          2.32375       -6.40452        0.04029
H          0.77470       -4.61821        1.45759
H         -3.24540       -5.20949        0.34977
H         -2.60380       -2.70482       -1.28711
H         -4.28819       -3.82464        2.57263
H         -5.56027       -4.24523        0.58833
H          5.20454       -2.63027       -3.68662
H          5.57176       -0.96318       -4.13385
H          6.50575       -1.76039       -2.87094
H          5.25404        4.83183        3.63840
H          4.54882        5.82667        2.36772
H          3.67340        5.57889        3.87990
H          2.23939        4.49906       -4.95016
H          0.71534        5.38743       -5.00716
H          1.85193        5.66095       -3.68491
H         -7.54174        2.32687       -1.50577
H         -7.71701        0.65008       -2.02825
H         -7.72286        1.04833       -0.30874
