171
-217.84020394
P         -1.52077        0.19546       -0.27697
P          1.67646       -0.67729        0.28072
C         -0.63787        0.91541       -1.67203
C          0.92948       -1.77547       -0.94405
C          0.20554        0.10558       -2.42207
C          0.92646        0.67252       -3.49053
C          0.73442        2.01074       -3.79464
C         -0.12698        2.79329       -3.05372
C         -0.81107        2.23983       -1.98951
C          0.94899       -3.10779       -0.60455
C          0.35385       -4.04577       -1.42580
C         -0.27404       -3.63529       -2.58185
C         -0.32091       -2.29681       -2.93335
C          0.29981       -1.34256       -2.10514
Cl         0.98030       -0.57484        3.42427
Cl        -2.14129       -1.20907        2.63711
C         -1.04689       -1.90179       -4.17172
C          1.86671       -0.14821       -4.30222
H         -0.26307        3.83336       -3.30134
H         -1.49019        2.84031       -1.40897
H          1.42624       -3.41070        0.31595
H          0.37367       -5.08971       -1.15877
H          1.26230        2.43782       -4.63013
H         -0.75018       -4.35873       -3.22212
C         -4.36270       -2.93845       -1.89639
C         -3.61246       -3.24024       -0.76710
C         -2.76465       -2.25952       -0.27100
C         -2.65785       -1.04463       -0.89880
C         -3.38600       -0.77340       -2.03166
C         -4.26502       -1.71692       -2.55103
H         -5.05313       -3.67296       -2.26758
H         -2.18878       -2.43215        0.61964
H         -3.24574        0.17371       -2.52247
C         -3.99578        3.48651        1.67216
C         -4.25123        3.11311        0.36000
C         -3.48183        2.09339       -0.18577
C         -2.48497        1.49120        0.54343
C         -2.25182        1.87901        1.84225
C         -3.01312        2.87480        2.43802
H         -4.58080        4.27371        2.11110
H         -3.65226        1.76748       -1.19585
H         -1.47617        1.39729        2.40636
C          5.65873       -2.52221        1.41997
C          4.85552       -2.01610        2.43536
C          3.63083       -1.47103        2.07972
C          3.22799       -1.44186        0.76998
C          4.03114       -1.95109       -0.22122
C          5.26970       -2.50135        0.08597
H          6.61470       -2.94462        1.66623
H          2.97484       -1.07252        2.83167
H          3.67883       -1.91756       -1.23824
C          2.85480        3.56069       -0.82079
C          1.82085        3.38893        0.09257
C          1.43570        2.09007        0.39954
C          2.06758        1.01694       -0.18497
C          3.09986        1.20823       -1.07017
C          3.51883        2.48959       -1.40441
H          3.17141        4.55428       -1.07610
H          0.64703        1.91748        1.10986
H          3.58921        0.34528       -1.48608
Pd        -0.27186       -0.58599        1.56770
C         -2.78218       -4.75653        1.09930
C         -3.74381       -4.61493       -0.09772
C         -3.40726       -5.71434       -1.12201
C         -5.18597       -4.79622        0.40806
H         -2.87095       -5.74355        1.55268
H         -1.74600       -4.62834        0.78682
H         -3.00359       -4.01934        1.87075
H         -4.09080       -5.69027       -1.96977
H         -2.39515       -5.58592       -1.50453
H         -3.47337       -6.70321       -0.66869
H         -5.30726       -5.75842        0.90526
H         -5.44413       -4.01270        1.12026
H         -5.90124       -4.75142       -0.41243
C         -6.60753       -1.21575       -3.25487
C         -5.16590       -1.40965       -3.75661
C         -5.12441       -2.57368       -4.76613
C         -4.71804       -0.12678       -4.48542
H         -7.28188       -0.98646       -4.07977
H         -6.97327       -2.11531       -2.76045
H         -6.65878       -0.39661       -2.53772
H         -4.10632       -2.75834       -5.10614
H         -5.50667       -3.49610       -4.33160
H         -5.73290       -2.34823       -5.64184
H         -5.33338        0.05189       -5.36709
H         -4.81119        0.74725       -3.84174
H         -3.68195       -0.20456       -4.81387
C         -5.49865        3.22958       -1.85554
C         -5.34366        3.83102       -0.44444
C         -4.96973        5.31777       -0.58419
C         -6.69078        3.69773        0.28957
H         -4.57590        3.32543       -2.42763
H         -5.76648        2.17445       -1.80327
H         -6.28417        3.74208       -2.41067
H         -4.00844        5.42669       -1.08634
H         -5.71811        5.85580       -1.16576
H         -4.89388        5.79924        0.39017
H         -6.95363        2.64838        0.42215
H         -6.65428        4.16074        1.27485
H         -7.49089        4.17765       -0.27376
C         -1.72427        2.43923        4.59126
C         -2.80896        3.29153        3.90177
C         -4.12962        3.10186        4.67125
C         -2.38381        4.76929        3.95645
H         -1.60479        2.73415        5.63353
H         -1.98798        1.38184        4.57562
H         -0.75766        2.55929        4.10423
H         -4.00945        3.36251        5.72261
H         -4.92167        3.72770        4.26203
H         -4.45975        2.06469        4.61601
H         -1.45622        4.92304        3.40711
H         -3.14299        5.41575        3.51762
H         -2.22361        5.09163        4.98512
C          6.65103       -2.68225        4.11378
C          5.26728       -2.03500        3.91420
C          4.22949       -2.84049        4.71837
C          5.32172       -0.58946        4.44264
H          6.65495       -3.71486        3.76523
H          7.42289       -2.13190        3.57607
H          6.92584       -2.68936        5.16850
H          4.15713       -3.86015        4.34069
H          4.50390       -2.88868        5.77193
H          3.24026       -2.38900        4.65265
H          4.34844       -0.10531        4.37100
H          5.62849       -0.56736        5.48815
H          6.03330        0.00367        3.86860
C          5.57699       -2.94558       -2.40145
C          6.20269       -3.06139       -0.99696
C          6.48216       -4.54789       -0.70946
C          7.52398       -2.27093       -0.98651
H          5.37898       -1.90527       -2.65893
H          6.24881       -3.34955       -3.15865
H          4.64102       -3.50086       -2.46119
H          5.55279       -5.11686       -0.69003
H          7.12619       -4.97906       -1.47572
H          6.97544       -4.67985        0.25279
H          8.20138       -2.63293       -1.75976
H          7.34025       -1.21201       -1.16740
H          8.03296       -2.36283       -0.02777
C          1.33782        4.40204        2.33013
C          1.15491        4.57337        0.81071
C         -0.34389        4.61291        0.46916
C          1.78010        5.91934        0.39575
H          0.85877        3.49104        2.68494
H          2.39564        4.34300        2.58538
H          0.90675        5.24220        2.87383
H         -0.84233        5.43388        0.98396
H         -0.49033        4.75243       -0.60120
H         -0.83663        3.68824        0.76159
H          1.30289        6.74533        0.92310
H          2.84357        5.94778        0.63243
H          1.65682        6.09658       -0.67253
C          4.22538        3.50728       -3.58674
C          4.70788        2.74073       -2.34330
C          5.36050        1.42037       -2.79932
C          5.77292        3.57169       -1.60279
H          3.77127        4.45905       -3.31334
H          5.05408        3.71345       -4.26391
H          3.48328        2.92634       -4.13195
H          5.72573        0.84971       -1.94561
H          4.65444        0.80126       -3.35106
H          6.20953        1.61406       -3.45467
H          5.38459        4.54628       -1.30983
H          6.10239        3.05707       -0.70030
H          6.64571        3.73823       -2.23393
H         -2.02396       -2.38372       -4.21216
H          2.69017        0.45755       -4.68269
H         -0.49045       -2.19803       -5.06205
H         -1.21006       -0.82448       -4.21646
H          1.35788       -0.59191       -5.15875
H          2.29740       -0.95612       -3.70847
