171
-217.84391263
P         -1.58990        0.41601       -0.38664
P          1.62451       -0.42347       -0.38415
C         -0.86687        1.34914       -1.73806
C          0.89719       -1.37746       -1.72057
C         -0.07345        0.71798       -2.68901
C          0.55670        1.50299       -3.67351
C          0.33465        2.86988       -3.69394
C         -0.48197        3.47187       -2.76007
C         -1.07332        2.70636       -1.77411
C          1.09449       -2.73683       -1.73337
C          0.49020       -3.51798       -2.69864
C         -0.32810       -2.92891       -3.63891
C         -0.54031       -1.56045       -3.64388
C          0.09946       -0.76053       -2.67753
Cl         1.55269        0.41523        2.83433
Cl        -1.62999       -0.50853        2.72862
C         -1.42838       -0.96227       -4.67848
C          1.44245        0.88874       -4.70065
H         -0.65327        4.53535       -2.79484
H         -1.69891        3.16874       -1.02744
H          1.72494       -3.19058       -0.98610
H          0.65397       -4.58311       -2.71318
H          0.81121        3.46455       -4.45499
H         -0.81354       -3.53494       -4.38526
C         -3.95685       -3.25599       -1.54534
C         -2.97787       -3.36681       -0.56506
C         -2.24315       -2.23153       -0.25395
C         -2.48326       -1.04559       -0.90069
C         -3.45366       -0.94964       -1.86704
C         -4.21535       -2.06155       -2.20808
H         -4.55276       -4.11486       -1.79009
H         -1.49355       -2.26550        0.51805
H         -3.62043        0.00478       -2.33678
C         -4.27877        2.94674        2.24888
C         -4.84700        1.95789        1.45323
C         -4.00260        1.21451        0.64073
C         -2.65322        1.46079        0.61904
C         -2.10856        2.44514        1.40522
C         -2.91172        3.20321        2.24664
H         -4.91410        3.52241        2.89388
H         -4.39985        0.42006        0.03328
H         -1.04372        2.60512        1.38401
C          4.33213       -2.90050        2.27860
C          2.98206       -3.22513        2.21096
C          2.17873       -2.47840        1.36010
C          2.70420       -1.43796        0.63526
C          4.03582       -1.11977        0.72743
C          4.88202       -1.85340        1.54873
H          4.97727       -3.46737        2.92298
H          1.12818       -2.69796        1.27300
H          4.40608       -0.28274        0.16285
C          3.88511        3.31501       -1.54223
C          2.89548        3.40186       -0.57039
C          2.18650        2.24772       -0.26683
C          2.47689        1.06353       -0.89729
C          3.46509        0.99023       -1.84735
C          4.19137        2.12465       -2.19123
H          4.44862        4.19299       -1.79552
H          1.40961        2.26578        0.47768
H          3.67057        0.03741       -2.30484
Pd         0.01134       -0.03460        1.25858
C         -2.87661       -4.41884        1.70909
C         -2.70056       -4.66880        0.19876
C         -1.25774       -5.11981       -0.08499
C         -3.66035       -5.79644       -0.22526
H         -2.70390       -5.33175        2.27870
H         -2.17933       -3.66487        2.07181
H         -3.88603       -4.07023        1.92602
H         -1.01619       -6.02935        0.46463
H         -1.12102       -5.32023       -1.14703
H         -0.54373       -4.35035        0.20462
H         -3.45360       -6.70973        0.33257
H         -4.69738       -5.52050       -0.03488
H         -3.55181       -6.02641       -1.28503
C         -6.69661       -2.20963       -2.48253
C         -5.36529       -1.98422       -3.22241
C         -5.18214       -3.06844       -4.30135
C         -5.41953       -0.60952       -3.91758
H         -6.72207       -3.18985       -2.00759
H         -6.83700       -1.45859       -1.70520
H         -7.54078       -2.14769       -3.16905
H         -5.21156       -4.06853       -3.87105
H         -5.97117       -3.00826       -5.05080
H         -4.22599       -2.95172       -4.80990
H         -4.48659       -0.39476       -4.43756
H         -6.22278       -0.58011       -4.65369
H         -5.60549        0.18801       -3.19857
C         -6.91125        1.79715        0.03763
C         -6.34742        1.63324        1.46171
C         -7.12836        2.56485        2.40788
C         -6.54452        0.17922        1.93081
H         -7.98058        1.58789        0.01478
H         -6.75800        2.81431       -0.32235
H         -6.42497        1.11830       -0.66194
H         -7.02078        3.60727        2.10857
H         -8.19169        2.32573        2.39487
H         -6.78059        2.46154        3.43554
H         -7.60257       -0.07934        1.96819
H         -6.05317       -0.52391        1.25904
H         -6.12548        0.03665        2.92664
C         -1.23746        3.53745        4.07850
C         -2.25627        4.24527        3.16398
C         -3.29334        4.96213        4.04914
C         -1.53498        5.29827        2.30437
H         -0.76459        4.24522        4.75890
H         -1.72658        2.76799        4.67525
H         -0.45040        3.05602        3.49948
H         -4.02806        5.49141        3.44266
H         -3.81795        4.25400        4.69027
H         -2.80943        5.69498        4.69471
H         -1.07129        6.06224        2.92818
H         -0.75244        4.84120        1.70207
H         -2.23405        5.79032        1.62843
C          1.06270       -3.89907        3.69265
C          2.36420       -4.37703        3.01614
C          3.32063       -4.87615        4.11649
C          2.05351       -5.54112        2.06026
H          0.64417       -4.67940        4.32788
H          1.25080       -3.02280        4.31262
H          0.30282       -3.63272        2.95976
H          4.22578       -5.30648        3.68893
H          3.60554       -4.06228        4.78306
H          2.84587       -5.64999        4.71963
H          1.59022       -6.37212        2.59183
H          1.37454       -5.22535        1.26977
H          2.96536       -5.90620        1.58803
C          7.21339       -2.75266        1.31081
C          6.37373       -1.51764        1.68583
C          6.66675       -1.10988        3.14095
C          6.78082       -0.35392        0.75948
H          6.99598       -3.07005        0.29109
H          8.27909       -2.53388        1.37622
H          7.00520       -3.59121        1.97415
H          6.06307       -0.24876        3.42708
H          6.43988       -1.92097        3.83192
H          7.71619       -0.84515        3.26887
H          7.84434       -0.13598        0.85585
H          6.58719       -0.59907       -0.28469
H          6.23520        0.55624        1.00814
C          3.64739        5.78067       -0.06995
C          2.55604        4.71494        0.14966
C          2.43079        4.46350        1.66630
C          1.22309        5.24923       -0.39735
H          3.42566        6.68367        0.49880
H          4.62123        5.41361        0.25384
H          3.71648        6.06620       -1.11924
H          2.24362        5.39440        2.20124
H          1.61089        3.78494        1.89571
H          3.34755        4.02594        2.06072
H          0.93051        6.16913        0.10854
H          1.30288        5.45976       -1.46352
H          0.42795        4.51784       -0.26052
C          5.09819        3.12947       -4.31058
C          5.34299        2.08418       -3.20585
C          5.47068        0.69711       -3.86553
C          6.66232        2.40157       -2.47821
H          4.15008        2.94657       -4.81448
H          5.07041        4.13958       -3.90411
H          5.88913        3.09615       -5.05968
H          5.69325       -0.07108       -3.12518
H          4.55233        0.42200       -4.38321
H          6.27782        0.69015       -4.59792
H          7.50622        2.36834       -3.16707
H          6.63617        3.39364       -2.02870
H          6.84681        1.67976       -1.68297
H         -1.76810        0.03225       -4.38623
H          0.91467        0.76559       -5.64726
H         -2.31337       -1.57984       -4.83371
H         -0.90997       -0.87556       -5.63429
H          1.80112       -0.09125       -4.38291
H          2.31601        1.51450       -4.88466
