111
-148.55727621
P         -2.70271        2.09179        0.54887
P          0.04598        0.52275        0.43688
C         -1.63564        2.04016        2.01361
C         -0.42244        1.38968        1.94618
C         -3.55299        3.72453        0.36239
C         -2.95072        4.52979       -0.76829
C         -2.03432        2.63177        3.19507
H         -2.99235        3.12247        3.24852
C         -1.20909        2.57646        4.30523
H         -1.51942        3.03798        5.22846
C          0.00934        1.92855        4.23282
H          0.65024        1.88358        5.09792
C          0.40249        1.32928        3.04956
H          1.34303        0.80548        2.97897
Pd        -1.40813        1.30340       -1.18518
Cl        -3.07710        1.73949       -2.61642
Cl         0.01225        0.50770       -2.73811
C         -5.02533        3.32331        0.15255
C         -4.16660        0.96737        0.66537
H         -1.88823        4.72005       -0.59818
H         -3.03956        3.99462       -1.71492
H         -3.45402        5.49240       -0.88538
H         -5.22409        3.26661       -0.92658
H         -5.69564        4.10774        0.53562
H         -4.22311        0.44151       -0.29724
C         -5.34438        1.94912        0.80819
C         -4.01743       -0.01497        1.80643
H         -3.43225        4.25041        1.31801
H         -5.55737        2.09316        1.87641
H         -6.26017        1.51299        0.38087
H         -4.89150       -0.66477        1.89172
H         -3.13755       -0.64697        1.66858
H         -3.89870        0.50905        2.75662
C         -0.85601       -3.93029        0.71620
C         -0.94711       -3.13004        1.88680
C         -0.66701       -1.77783        1.77978
C         -0.39066       -1.20861        0.56460
C         -0.42765       -1.95367       -0.58338
C         -0.69952       -3.30963       -0.55157
O         -0.83246       -5.34488        0.82009
C         -1.33479       -3.67661        3.27105
H         -0.64397       -1.15431        2.65664
H         -0.22593       -1.45515       -1.51618
C         -0.81737       -4.04586       -1.89598
C          4.43904        0.77948       -0.71439
C          3.59860        1.90362       -0.92331
C          2.26506        1.80500       -0.56017
C          1.78319        0.67541        0.04601
C          2.61422       -0.37217        0.34596
C          3.95781       -0.33828        0.01409
O          5.74635        0.75611       -1.26903
C          4.09717        3.19734       -1.58562
H          1.57394        2.60279       -0.77126
H          2.18877       -1.23665        0.82615
C          4.84730       -1.52926        0.40333
C         -0.08792       -3.71649        4.17005
C         -2.39158       -2.75098        3.91340
C         -1.95840       -5.08100        3.19287
C          0.57982       -4.19002       -2.52236
C         -1.46281       -5.43432       -1.74850
C         -1.71644       -3.22703       -2.84959
C          0.47900       -5.86054        0.97904
H         -0.33735       -4.08199        5.16586
H          0.67608       -4.37066        3.75430
H          0.34751       -2.72333        4.27646
H         -3.26542       -2.66118        3.26897
H         -2.72296       -3.14781        4.87264
H         -2.00041       -1.75119        4.09425
H         -2.80194       -5.08884        2.50347
H         -1.23584       -5.81472        2.84364
H         -2.31398       -5.40798        4.16971
H          1.23929       -4.77477       -1.88391
H          0.52299       -4.68632       -3.49073
H          1.04184       -3.21459       -2.67205
H         -0.83253       -6.10220       -1.16616
H         -2.42527       -5.35882       -1.24369
H         -1.62392       -5.89805       -2.72140
H         -2.68816       -3.03813       -2.39432
H         -1.27140       -2.26603       -3.10183
H         -1.88110       -3.76267       -3.78404
H          1.10421       -5.55864        0.14033
H          0.92117       -5.48152        1.89893
H          0.43466       -6.94895        1.02265
C          5.80908        0.20367       -2.57816
C          3.91305        3.08930       -3.10714
C          3.29297        4.41595       -1.07838
C          5.57481        3.46331       -1.24549
C          4.34510       -2.17903        1.71362
C          4.79916       -2.58371       -0.71325
C          6.29871       -1.08163        0.65301
H          4.48443        2.25948       -3.51570
H          2.86529        2.92344       -3.35688
H          4.23974        4.00115       -3.60629
H          2.25960        4.38817       -1.42075
H          3.29386        4.45495        0.01060
H          3.72612        5.34556       -1.44695
H          5.90834        4.41274       -1.66361
H          5.71969        3.49819       -0.16626
H          6.22056        2.68458       -1.64330
H          4.24106       -1.43301        2.50107
H          3.38325       -2.67170        1.57824
H          5.04544       -2.93785        2.06198
H          3.77794       -2.93000       -0.87181
H          5.15989       -2.17793       -1.65529
H          5.41340       -3.44780       -0.46127
H          6.33439       -0.30489        1.41615
H          6.75236       -0.68167       -0.25017
H          6.91393       -1.91595        0.98900
H          6.22581        0.93938       -3.26585
H          6.46230       -0.66871       -2.57731
H          4.81353       -0.08741       -2.91580
