100
-131.98317846
C         -1.66387        3.76758       -1.50743
C         -2.37086        2.48294       -1.49284
C         -0.26916        3.48690       -1.51421
C         -0.04740        2.01871       -1.61810
C          1.13150        1.44428       -2.32308
C         -1.41871        1.41356       -1.59409
C         -1.81134        0.00489       -2.00786
C         -0.84876       -0.70687       -2.93513
Cl         0.99923       -0.50249        2.79804
Cl        -1.84251       -1.70978        2.40369
C          3.25956        0.43213       -3.83375
C          2.53062        1.50483       -4.30875
C          2.94362       -0.12434       -2.60271
C          1.49231        2.00802       -3.56598
C          1.89171        0.35199       -1.85642
H         -3.45333        2.36625       -1.56515
H          0.52028        4.23774       -1.60166
H          0.06332       -0.97854       -2.40485
H         -1.27671       -1.63062       -3.33224
H         -0.57261       -0.07666       -3.78409
H          4.08307        0.04064       -4.40829
H          2.77871        1.94648       -5.26033
H          3.55569       -0.92421       -2.22081
H          0.91747        2.83842       -3.93834
H         -2.12535        4.75835       -1.51149
P          1.72500       -0.31493       -0.18171
H         -2.78636        0.07326       -2.50673
P         -2.12089       -1.01463       -0.51394
H         -3.44517       -3.01201       -0.32021
C         -1.65970       -3.76459       -1.23480
C         -2.71441       -2.67581       -1.05653
C         -1.19782       -4.30932        0.11916
H         -3.16680        0.78119        0.62190
C         -4.86502       -0.05447       -0.39505
C         -3.53626       -0.20818        0.36216
H         -4.63172        0.24208       -1.43209
C         -5.67573       -1.35238       -0.44225
H          3.58267       -1.82283       -0.41401
H          2.50564        0.77466        1.84079
C          3.51975        3.25060        1.17269
C          2.69366        2.28017        0.30934
C          2.83869        0.83295        0.79966
C          4.32234        0.42884        0.75621
C          5.18630        1.38577        1.60405
C          5.00642        2.84921        1.15698
H          3.14617        3.22681        2.20389
H          3.38666        4.28747        0.83352
H          3.05003        2.33403       -0.72674
H          1.63881        2.57030        0.26405
H          4.45761       -0.60535        1.09483
H          4.66300        0.44765       -0.28574
H          4.89914        1.29167        2.65879
H          6.24484        1.09306        1.56186
H          5.40480        2.97050        0.14177
H          5.59963        3.52609        1.78807
C          2.69959       -4.30308       -1.13245
C          1.91927       -2.97307       -1.10470
C          2.54289       -1.99086       -0.11139
C          2.56321       -2.61110        1.29365
C          3.36686       -3.92582        1.29777
C          2.78982       -4.92578        0.27606
H          3.71141       -4.12119       -1.51526
H          2.23969       -5.00624       -1.84094
H          0.89311       -3.16118       -0.78289
H          1.84253       -2.52900       -2.10602
H          2.95050       -1.89816        2.03287
H          1.53363       -2.81815        1.60694
H          4.41341       -3.71226        1.04755
H          3.38912       -4.36423        2.30530
H          1.79153       -5.24050        0.60249
H          3.39105       -5.84577        0.25382
H         -0.80409       -3.30838       -1.75945
C         -2.19108       -4.90286       -2.11160
H         -3.70366       -0.73707        1.30016
C         -5.70547        1.06245        0.23457
H         -3.25167       -2.51292       -1.99277
H         -0.79820       -3.52540        0.76122
H         -0.43302       -5.07751        0.00091
H         -2.03299       -4.76414        0.65248
H         -1.43723       -5.67774       -2.26000
H         -3.05866       -5.37221       -1.64671
H         -2.49914       -4.54265       -3.09454
H         -6.66384       -1.18327       -0.87352
H         -5.19529       -2.12277       -1.04232
H         -5.82307       -1.75217        0.56151
H         -5.93898        0.82644        1.27323
H         -5.17987        2.01805        0.22463
H         -6.65079        1.19861       -0.29301
Fe        -1.06659        2.65617        0.09381
C         -2.44953        3.06720        1.62405
C         -1.58399        4.18947        1.30834
C         -0.20554        3.81003        1.56061
C         -0.22012        2.40801        1.92847
C         -1.59481        1.95714        1.98991
H         -3.54101        3.07031        1.61191
H         -1.92340        5.19311        1.03953
H          0.67110        4.45701        1.47902
H          0.63534        1.81546        2.25293
H         -1.91330        0.97277        2.34018
Pd        -0.30182       -0.85457        0.98039
