111
-148.55209621
P         -2.63862        1.89449        0.56074
P          0.20002        0.50855        0.41269
C         -1.67379        1.64065        2.07979
C         -0.41287        1.09045        2.00238
C         -3.73213        3.38118        0.74097
C         -3.51919        4.38152       -0.37330
C         -2.19525        1.98616        3.31093
H         -3.18964        2.39624        3.37359
C         -1.44660        1.78790        4.45832
H         -1.85413        2.05823        5.41879
C         -0.18040        1.24146        4.37514
H          0.40092        1.08371        5.26866
C          0.33600        0.88592        3.14239
H          1.31413        0.43876        3.06073
Pd        -1.12923        1.55738       -1.17036
Cl        -2.70452        2.34135       -2.55700
Cl         0.41001        1.12979       -2.74561
C         -5.14796        2.76715        0.76930
C         -3.90767        0.57878        0.26943
H         -3.79803        3.95000       -1.33511
H         -4.12679        5.27811       -0.22976
H         -2.47258        4.68749       -0.43893
H         -5.86130        3.46997        0.31468
H         -5.48083        2.64095        1.81003
H         -3.61062        0.04489       -0.64396
C         -5.19842        1.39225        0.04452
C         -3.97668       -0.37616        1.44110
H         -3.48063        3.84064        1.70610
H         -6.06601        0.80667        0.38227
H         -5.35123        1.55614       -1.03249
H         -3.01210       -0.85674        1.61588
H         -4.24905        0.15473        2.35516
H         -4.71980       -1.16031        1.27757
C         -1.42306       -3.70007       -0.20937
C         -1.03434       -2.91972       -1.32793
C         -0.53813       -1.64949       -1.09682
C         -0.37247       -1.17347        0.17621
C         -0.63702       -1.96605        1.26185
C         -1.12254       -3.25306        1.10324
O         -2.15169       -4.90376       -0.40174
C         -1.19389       -3.40317       -2.77682
H         -0.28699       -0.99662       -1.91437
H         -0.47541       -1.55683        2.24363
C         -1.34428       -4.12521        2.34862
C          4.74322        0.62894        0.14867
C          4.08844       -0.51468        0.67254
C          2.70640       -0.49614        0.75781
C          1.98209        0.56844        0.28806
C          2.60310        1.63246       -0.31072
C          3.98223        1.67390       -0.43599
O          6.15643        0.74073        0.23705
C          4.85062       -1.75682        1.16018
H          2.17038       -1.32201        1.19316
H          1.98957        2.43030       -0.69202
C          4.62937        2.84302       -1.19535
C         -2.57454       -2.97867       -3.30039
C         -0.10894       -2.77625       -3.68232
C         -1.03355       -4.93088       -2.87461
C         -0.31067       -3.77767        3.44432
C         -2.75382       -3.87289        2.90511
C         -1.16330       -5.61829        2.02005
C         -3.56282       -4.72673       -0.40905
H         -2.71419       -3.29378       -4.33407
H         -3.37296       -3.41491       -2.70473
H         -2.68501       -1.89515       -3.25965
H         -0.25322       -1.70361       -3.80234
H          0.88520       -2.94426       -3.26904
H         -0.13592       -3.21525       -4.67930
H         -0.07371       -5.24276       -2.46420
H         -1.81529       -5.44798       -2.32386
H         -1.08454       -5.26482       -3.91062
H         -0.47163       -2.77996        3.84996
H         -0.38061       -4.47648        4.27761
H          0.70382       -3.82782        3.04955
H         -2.87434       -2.82870        3.19219
H         -3.51701       -4.10347        2.16552
H         -2.94128       -4.48700        3.78553
H         -0.18141       -5.79869        1.58372
H         -1.25404       -6.23086        2.91672
H         -1.91163       -5.96197        1.31033
H         -4.01038       -5.32005        0.38810
H         -3.81540       -3.67529       -0.26547
H         -3.96951       -5.07102       -1.35979
C          6.61450        1.37738        1.42311
C          3.98820       -3.02876        0.98831
C          6.13690       -1.97307        0.34251
C          5.19032       -1.59291        2.64919
C          3.67880        3.36858       -2.29572
C          4.92638        3.98695       -0.21440
C          5.92432        2.39755       -1.89893
H          4.57040       -3.92355        1.20729
H          3.13353       -3.03147        1.66323
H          3.61879       -3.11172       -0.03356
H          6.64437       -2.88882        0.64475
H          5.90787       -2.04663       -0.72009
H          6.83517       -1.15064        0.47678
H          5.81816       -0.72102        2.81645
H          4.28302       -1.46626        3.23951
H          5.72012       -2.46688        3.02732
H          2.80334        3.85863       -1.87261
H          4.18242        4.10182       -2.92515
H          3.33921        2.55446       -2.93556
H          5.37343        4.83677       -0.72959
H          4.01084        4.32809        0.26825
H          5.61293        3.66841        0.56633
H          6.67897        2.08578       -1.18116
H          6.34788        3.20854       -2.49082
H          5.72913        1.55744       -2.56460
H          7.26524        0.69859        1.97408
H          7.19112        2.26469        1.16243
H          5.77053        1.66327        2.05215
