115
-277.93429509
P         -1.83023        0.86970        0.25071
P          1.75904        0.04069       -0.02313
C         -2.75720        2.39917        0.09580
C         -4.00917        2.46782        0.67092
H         -4.49501        1.56449        1.00609
C         -4.56176        3.70439        0.94579
H         -5.47573        3.77864        1.51241
C         -3.86602        4.86486        0.63675
C         -2.67567        4.77644       -0.06653
H         -2.13869        5.68671       -0.28425
C         -2.11242        3.54345       -0.32403
H         -1.13467        3.48009       -0.77370
C         -2.83275       -0.49687       -0.36191
C         -3.32676       -1.42984        0.52204
H         -3.20992       -1.28134        1.58310
C         -3.91349       -2.58385        0.04480
H         -4.23750       -3.36348        0.71700
C         -4.01125       -2.80377       -1.31622
C         -3.55968       -1.83592       -2.19488
H         -3.61124       -2.02549       -3.25484
C         -2.97678       -0.68366       -1.71669
H         -2.59307        0.05321       -2.40242
C         -1.44674        0.60249        2.01980
C         -0.82359       -0.61311        2.21674
H         -0.58015       -1.21939        1.36413
C         -0.34347       -0.99816        3.46617
C         -0.70683       -0.22513        4.56200
H         -0.38306       -0.51856        5.54655
C         -1.33217        0.99192        4.37883
H         -1.49214        1.63524        5.22753
C         -1.60425        1.48160        3.10117
C          1.67215        0.79282        1.64291
C          1.08390        2.04589        1.62465
H          0.69572        2.43365        0.69742
C          0.83047        2.74934        2.80277
C          1.40564        2.26954        3.97370
H          1.25967        2.81143        4.89318
C          2.01202        1.02979        3.99878
H          2.33920        0.62146        4.93989
C          2.05057        0.22063        2.86379
C         -1.71318        2.98248        2.95281
H         -2.31241        3.38344        3.77899
H         -2.30691        3.21950        2.07415
C         -0.32461        3.71564        2.87529
H         -0.29391        4.39433        2.01640
H         -0.19076        4.36805        3.74538
C          0.82464       -1.94436        3.54801
H          0.60293       -2.83933        2.95662
H          0.91535       -2.30933        4.57693
C          2.16805       -1.27078        3.07865
H          2.96573       -1.46664        3.80372
H          2.51961       -1.72790        2.15704
C          1.53007       -1.75180       -0.13171
C          0.29407       -2.31723       -0.36750
C          2.61136       -2.55384        0.16064
C          0.10704       -3.66943       -0.16419
C          2.42155       -3.90103        0.38616
C          1.15555       -4.45520        0.28650
C          3.31452        0.51568       -0.80089
C          3.92998       -0.28111       -1.73916
C          3.88394        1.71086       -0.42749
C          5.12659        0.11670       -2.30096
H          3.46668       -1.20567       -2.04389
C          5.07937        2.10767       -0.98863
H          3.39791        2.32738        0.31122
C          5.70724        1.31342       -1.92897
H          5.63149       -0.49675       -3.03063
H          5.54757        3.03357       -0.69522
Pd        -0.05003        0.86877       -1.28943
Cl        -1.53357        1.86116       -2.65635
Cl         1.47714        0.61266       -2.92018
H          3.23260       -4.51261        0.74708
H          3.58674       -2.11300        0.29847
H         -0.86915       -4.12347       -0.26723
H         -0.54302       -1.70013       -0.64574
C         -5.66558        6.33168        1.66195
C         -4.14887        6.15856        1.35996
C         -3.27171        6.12617        2.65323
F         -5.87589        7.55881        2.16290
F         -6.32954        6.18415        0.50596
F         -6.06371        5.39529        2.53397
F         -3.75353        7.19663        0.61909
F         -3.57407        5.03098        3.36254
F         -1.98962        6.05153        2.26881
F         -3.48249        7.23667        3.37221
C         -5.07241       -4.13108       -3.19284
C         -4.37662       -4.18209       -1.80116
C         -3.05684       -5.00828       -1.81727
F         -5.54155       -5.35184       -3.49475
F         -6.08441       -3.25485       -3.10866
F         -4.19624       -3.72260       -4.12104
F         -5.21912       -4.76341       -0.94321
F         -2.62965       -5.09114       -0.54975
F         -3.28935       -6.22985       -2.31935
F         -2.13959       -4.35466       -2.54482
C          7.05463        3.19660       -2.91663
C          7.05330        1.69914       -2.48795
C          8.13853        1.38912       -1.41711
F          6.00091        3.38791       -3.72442
F          6.94100        3.97518       -1.83163
F          8.19416        3.46677       -3.57178
F          7.32763        0.96714       -3.57116
F          8.10649        0.06825       -1.18481
F          9.34360        1.74997       -1.88273
F          7.84757        2.05317       -0.28888
C          2.01814       -6.76041        0.90641
C          0.83656       -5.75050        0.99216
C          0.48944       -5.35556        2.46185
F          3.06468       -6.29555        1.60262
F          1.61873       -7.94427        1.39701
F          2.35526       -6.88537       -0.38593
F         -0.23833       -6.32855        0.45099
F          1.51509       -4.66917        2.98308
F         -0.58541       -4.55549        2.42149
F          0.23206       -6.45599        3.18154
