111
-148.55506079
P         -1.59051        2.86134       -0.02312
P         -0.55431       -0.10309        0.46648
C         -1.64047        2.14031        1.64393
C         -1.25557        0.83023        1.84113
C         -0.33828        4.22002       -0.09867
C          0.78995        3.85359       -1.03970
C         -2.03008        2.90930        2.72186
H         -2.29057        3.94398        2.57038
C         -2.05897        2.35563        3.99028
H         -2.36735        2.95544        4.83098
C         -1.68674        1.03878        4.18143
H         -1.70362        0.60985        5.16982
C         -1.27320        0.27638        3.10388
H         -0.94527       -0.74227        3.23944
Pd        -1.32343        1.02735       -1.39216
Cl        -2.46858        1.98521       -3.06372
Cl        -0.91844       -0.84040       -2.58718
C         -1.16234        5.44453       -0.54668
C         -3.11934        3.80531       -0.46730
H          0.40600        3.65336       -2.04214
H          1.52259        4.66022       -1.11852
H          1.31282        2.95499       -0.70618
H         -1.01322        5.59212       -1.62506
H         -0.77855        6.35928       -0.07036
H         -3.28481        3.61765       -1.53621
C         -2.68083        5.26597       -0.25935
C         -4.32940        3.37351        0.33299
H          0.02946        4.35308        0.92714
H         -2.89918        5.55982        0.77645
H         -3.28251        5.93914       -0.88920
H         -4.52894        2.30745        0.20256
H         -4.18173        3.55020        1.39862
H         -5.22302        3.92461        0.03136
C         -0.82938       -4.63413        0.75317
C          0.24762       -3.94754        1.37019
C          0.29545       -2.56803        1.25644
C         -0.70782       -1.87522        0.63079
C         -1.80535       -2.52339        0.12957
C         -1.91429       -3.90246        0.20504
O         -0.80141       -6.05028        0.64800
C          1.37937       -4.67232        2.11519
H          1.13437       -2.01186        1.63896
H         -2.56749       -1.93418       -0.35080
C         -3.17362       -4.58213       -0.35453
C          3.74398        1.26942       -0.12874
C          3.15341        0.36920       -1.05532
C          1.84435       -0.02496       -0.83942
C          1.16182        0.37015        0.27956
C          1.76663        1.13899        1.23833
C          3.07304        1.57156        1.08643
O          4.95417        1.93262       -0.45741
C          3.87261       -0.19390       -2.29153
H          1.31961       -0.61543       -1.57137
H          1.19746        1.41990        2.10759
C          3.70705        2.35430        2.24782
C          1.95072       -3.77841        3.23977
C          0.86924       -5.96143        2.78435
C          2.51004       -4.99768        1.12709
C         -4.40316       -3.65669       -0.21005
C         -2.96291       -4.88599       -1.84578
C         -3.49620       -5.87716        0.41279
C         -0.16535       -6.53025       -0.53014
H          2.66169       -4.33349        3.85136
H          2.48032       -2.91492        2.83993
H          1.15488       -3.42119        3.89286
H          1.65761       -6.44017        3.36466
H          0.03930       -5.74257        3.45537
H          0.52084       -6.68069        2.04756
H          2.16038       -5.64471        0.32626
H          2.89696       -4.08650        0.67120
H          3.33562       -5.50054        1.63005
H         -4.32900       -2.78344       -0.85632
H         -5.31699       -4.18178       -0.48718
H         -4.51236       -3.31507        0.81891
H         -2.11937       -5.55519       -1.99660
H         -3.84652       -5.35479       -2.27794
H         -2.76085       -3.96959       -2.39992
H         -3.60372       -5.67516        1.47796
H         -4.42460       -6.32279        0.05648
H         -2.70937       -6.61735        0.29196
H          0.67942       -7.16298       -0.25847
H         -0.86834       -7.13114       -1.10679
H          0.18550       -5.69629       -1.13941
C          4.74131        3.14950       -1.15417
C          5.39379        0.02775       -2.23719
C          3.63932       -1.71942       -2.36535
C          3.30051        0.46523       -3.55789
C          3.09462        3.76367        2.30707
C          3.41753        1.62202        3.57708
C          5.23626        2.46026        2.11705
H          5.63971        1.08591       -2.28419
H          5.80731       -0.37045       -1.31129
H          5.89252       -0.46378       -3.07219
H          4.19434       -2.15778       -3.19429
H          3.96885       -2.20337       -1.44635
H          2.58842       -1.96159       -2.51444
H          3.77632        0.06642       -4.45332
H          2.22875        0.28693       -3.64015
H          3.45722        1.54215       -3.54605
H          2.01619        3.71317        2.45380
H          3.51805        4.33796        3.13063
H          3.27865        4.31252        1.38551
H          3.92066        2.11402        4.40910
H          2.35346        1.60456        3.80694
H          3.76975        0.59178        3.53280
H          5.68135        1.47232        2.00413
H          5.67400        2.93236        2.99629
H          5.51841        3.05369        1.25075
H          5.70442        3.57637       -1.43461
H          4.15178        2.96894       -2.05162
H          4.20716        3.85546       -0.52061
