111
-148.55171420
P         -2.75716        1.83754       -0.30069
P          0.08889        0.58760        0.20715
C         -1.88437        2.20094        1.24799
C         -0.60987        1.71025        1.43155
C         -3.80471        3.27084       -0.82885
C         -3.12541        4.14410       -1.86067
C         -2.47546        2.96118        2.23748
H         -3.48044        3.32532        2.10378
C         -1.78150        3.23581        3.40338
H         -2.24287        3.82940        4.17566
C         -0.50055        2.74912        3.58007
H          0.03825        2.96070        4.48899
C          0.08524        1.97824        2.59255
H          1.07574        1.57182        2.72325
Pd        -1.19323        0.86770       -1.70644
Cl        -2.32959        1.53891       -3.51421
Cl         0.40042       -0.19398       -2.88641
C         -5.09382        2.57643       -1.30195
C         -4.05659        0.52188       -0.16447
H         -3.75186        4.99502       -2.13771
H         -2.17365        4.52985       -1.48831
H         -2.91721        3.58336       -2.77136
H         -4.99084        2.33005       -2.36793
H         -5.94889        3.26678       -1.23755
H         -3.83090       -0.20984       -0.95185
C         -5.36142        1.27611       -0.49037
C         -4.03650       -0.13394        1.19932
H         -4.00880        3.85195        0.07911
H         -5.86479        1.53296        0.45169
H         -6.06092        0.61713       -1.02641
H         -3.07733       -0.61800        1.39194
H         -4.19357        0.60548        1.98680
H         -4.81952       -0.89021        1.29123
C         -1.24851       -3.62305        1.32274
C         -0.81054       -3.34799        0.00016
C         -0.41563       -2.05682       -0.30053
C         -0.37739       -1.08265        0.66069
C         -0.66896       -1.37713        1.96656
C         -1.06744       -2.64920        2.34088
O         -1.94225       -4.82759        1.60558
C         -0.74784       -4.39594       -1.12279
H         -0.14405       -1.78724       -1.30629
H         -0.60041       -0.59130        2.69888
C         -1.28078       -2.92052        3.83904
C          4.62474        0.87970       -0.04599
C          3.82708        1.54176       -1.01465
C          2.44901        1.46935       -0.89245
C          1.86807        0.70850        0.08729
C          2.63368       -0.02107        0.95914
C          4.01671        0.01495        0.89929
O          6.02667        1.10419       -0.00397
C          4.43318        2.33078       -2.18611
H          1.80540        1.99892       -1.57344
H          2.12949       -0.62867        1.69099
C          4.82981       -0.86414        1.86242
C         -1.87670       -4.12838       -2.13230
C          0.61283       -4.28966       -1.84683
C         -0.86353       -5.83386       -0.58853
C         -2.56211       -2.21163        4.30896
C         -1.37844       -4.42303        4.15461
C         -0.07609       -2.36939        4.63383
C         -3.34334       -4.70661        1.42379
H         -2.85388       -4.20625       -1.65953
H         -1.79147       -3.12803       -2.55578
H         -1.84257       -4.84395       -2.95330
H          1.43424       -4.39268       -1.13834
H          0.71560       -5.07269       -2.59757
H          0.72659       -3.33494       -2.35749
H         -0.11315       -6.02001        0.17902
H         -1.84176       -6.01335       -0.14879
H         -0.72228       -6.56221       -1.38671
H         -3.43495       -2.58182        3.77439
H         -2.72755       -2.37225        5.37395
H         -2.49877       -1.13732        4.13812
H         -0.50990       -4.95422        3.76682
H         -1.43173       -4.59623        5.22919
H         -2.26588       -4.86323        3.70616
H          0.85499       -2.80241        4.26914
H          0.00200       -1.28647        4.55275
H         -0.16655       -2.60988        5.69280
H         -3.81960       -5.65975        1.65442
H         -3.74102       -3.93640        2.08276
H         -3.56433       -4.43365        0.39316
C          6.41434        2.20178        0.81265
C          3.48933        2.29628       -3.41036
C          4.63878        3.79338       -1.76476
C          5.77066        1.71465       -2.63542
C          6.14921       -1.32080        1.21396
C          5.11650       -0.07710        3.14999
C          4.04252       -2.14280        2.23154
H          3.97171        2.73372       -4.28408
H          3.21303        1.27163       -3.65783
H          2.57657        2.86277       -3.23262
H          5.05725        4.37994       -2.58223
H          3.69177        4.24721       -1.47367
H          5.31562        3.86799       -0.91702
H          6.51930        1.77474       -1.84939
H          5.64097        0.66416       -2.89355
H          6.16732        2.23234       -3.50840
H          5.95564       -1.84185        0.27693
H          6.79801       -0.47567        0.99756
H          6.69610       -1.99620        1.87139
H          4.18681        0.22422        3.63229
H          5.68435       -0.68017        3.85804
H          5.68825        0.82407        2.94193
H          3.17018       -1.91708        2.84314
H          4.66543       -2.82869        2.80521
H          3.70779       -2.66467        1.33533
H          5.53789        2.67052        1.26188
H          7.08374        1.85342        1.59900
H          6.95030        2.93466        0.20982
