59
-75.79943702
Cl         1.57227        0.92006        2.30610
P          1.64284        0.02692       -0.81177
P         -1.53376       -0.12842       -0.85018
C          0.69418        0.59214       -2.28974
H          0.44629        1.64774       -2.15317
H          1.33792        0.51395       -3.17110
C         -0.54977       -0.24366       -2.41624
H         -0.29137       -1.29141       -2.58470
H         -1.17962        0.07198       -3.25395
C          2.28273       -1.68241       -1.13990
H          1.93491       -1.92164       -2.15334
C          3.25348        0.91008       -0.59867
H          3.44809        0.92967        0.48073
C         -2.37670       -1.68941       -0.30579
H         -1.86993       -2.02522        0.60779
C         -3.00509        0.97293       -1.08664
H         -2.96800        1.33442       -2.12201
C          3.81692       -1.52099       -1.14200
H          4.22789       -1.91604       -0.20554
H          4.26432       -2.14041       -1.93376
C          4.24483       -0.03561       -1.29934
H          4.28706        0.22597       -2.36598
H          5.26393        0.12505       -0.91495
C         -3.80759       -1.20440        0.00190
H         -4.52510       -2.02433       -0.14088
H         -3.88385       -0.92662        1.06376
C         -4.19701        0.01739       -0.87403
H         -5.03415        0.56705       -0.41951
H         -4.57076       -0.33731       -1.84593
C          1.72926       -2.69632       -0.13875
H          2.01033       -3.70965       -0.45814
H          0.63212       -2.67114       -0.19085
C          3.23433        2.33054       -1.14925
H          4.26226        2.71812       -1.17910
H          2.90670        2.30245       -2.19646
C         -2.29830       -2.77993       -1.36926
H         -2.81133       -2.42789       -2.27389
H         -1.25055       -2.91981       -1.66532
C         -2.99413        2.15901       -0.12992
H         -3.96240        2.67609       -0.18370
H         -2.92673        1.78047        0.89788
C          2.17122       -2.47510        1.30277
H          2.00231       -1.44609        1.61954
H          3.23377       -2.67929        1.44088
H          1.63110       -3.12229        1.99776
C          2.35039        3.26478       -0.33813
H          1.32329        2.90232       -0.30026
H          2.32870        4.27536       -0.75213
H          2.69736        3.33804        0.69429
C         -2.87378       -4.11383       -0.91335
H         -2.37100       -4.47079       -0.01245
H         -2.76568       -4.88747       -1.67712
H         -3.93651       -4.03782       -0.67928
C         -1.86805        3.14132       -0.40839
H         -1.87043        3.97880        0.29293
H         -0.89586        2.65548       -0.33268
H         -1.94234        3.55387       -1.41634
Cl        -1.64685        0.30983        2.31600
Pd         0.02263        0.27885        0.81774
