72
-98.10286212
Fe        -0.01047        2.74711       -0.03309
P          1.82320       -0.06767       -0.06243
P         -1.93085       -0.02080        0.04491
C          1.40661        1.57165        0.64795
C          0.41386        1.80644        1.68166
C          0.33870        3.23767        1.91685
C          1.30277        3.88291        1.04315
C          1.99533        2.85305        0.28650
C         -1.43800        1.56994       -0.71895
C         -2.02635        2.87339       -0.45124
C         -1.29709        3.84909       -1.24235
C         -0.30684        3.14015       -2.03362
C         -0.42725        1.72087       -1.75316
C          3.05008       -0.87491        1.06363
C          4.34155       -0.11329        0.72292
C          3.00480        0.20139       -1.47375
C          4.36731        0.37318       -0.75997
C         -3.36240       -0.69479       -0.92078
C         -4.53400        0.11408       -0.33788
C         -2.85793        0.26933        1.63033
C         -4.31842        0.47671        1.16132
H         -0.17034        1.03647        2.18411
H         -0.31788        3.73733        2.63309
H          1.50428        4.95564        0.99491
H          2.78090        3.01409       -0.45441
H         -2.83375        3.07979        0.25399
H          0.16764        0.91798       -2.18926
Cl         1.45490       -3.06337       -0.44431
Cl        -1.63585       -3.06117        0.20313
Pd        -0.07657       -1.44767       -0.05576
H          3.13531       -1.92409        0.75815
C          2.62092       -0.78293        2.52167
H          2.69610        1.12378       -1.98050
C          3.02499       -0.95669       -2.46805
H          5.22359       -0.73229        0.94806
H          4.41648        0.75232        1.39710
H          4.69587        1.42192       -0.80939
H          5.13051       -0.18746       -1.31805
H         -1.47887        4.92585       -1.25768
H          0.38039        3.59180       -2.75273
H          2.50755        0.27493        2.79302
H          3.87711       -0.82660       -3.14980
H         -3.45903       -1.75429       -0.65708
C         -3.21067       -0.53660       -2.42992
H         -2.45393        1.18127        2.08566
C         -2.73564       -0.90744        2.59942
H         -5.48189       -0.42775       -0.48024
H         -4.63825        1.03639       -0.92797
H         -4.63994        1.51113        1.35366
H         -4.97840       -0.14356        1.78383
H         -4.17817       -0.74140       -2.90910
H         -2.98249       -1.82911        2.05618
C          3.58842       -1.47204        3.47177
H          3.69620       -2.52958        3.22356
H          4.58300       -1.02578        3.41851
H          3.25651       -1.41004        4.51067
C          1.74744       -1.10237       -3.27415
H          1.51796       -0.18950       -3.82688
H          1.80992       -1.91851       -3.99760
H          0.90221       -1.31527       -2.62270
C         -2.14062       -1.43532       -3.02225
H         -1.16626       -1.20892       -2.59396
H         -2.34603       -2.48699       -2.81400
H         -2.05766       -1.32095       -4.10543
C         -1.37728       -1.03916        3.26686
H         -0.58691       -1.17510        2.53078
H         -1.13376       -0.15084        3.85259
H         -1.33651       -1.89600        3.94331
H          1.61857       -1.21761        2.62716
H          3.23442       -1.88389       -1.91876
H         -2.99374        0.51567       -2.65574
H         -3.51115       -0.81338        3.37255
