111
-148.54888341
P         -2.13084        2.51324        0.82022
P         -0.16747        0.02084        0.54010
C         -1.34902        1.80413        2.29248
C         -0.49196        0.73327        2.16542
C         -1.91689        4.35232        0.83827
C         -1.25754        4.84155       -0.43249
C         -1.56063        2.37412        3.53166
H         -2.21569        3.22536        3.62112
C         -0.91550        1.86394        4.64496
H         -1.08218        2.30723        5.61311
C         -0.04720        0.79764        4.51353
H          0.46568        0.40804        5.37746
C          0.17195        0.23681        3.26818
H          0.87245       -0.57462        3.14499
Pd        -1.31671        1.32851       -0.99099
Cl        -2.68197        2.60189       -2.24198
Cl        -0.42055        0.19548       -2.70890
C         -3.35532        4.87196        1.04182
C         -3.97780        2.39595        0.79324
H         -1.08887        5.92077       -0.40819
H         -0.29526        4.35104       -0.59536
H         -1.88552        4.62697       -1.29831
H         -3.47207        5.83722        0.52794
H         -3.53100        5.08180        2.10712
H         -4.23315        1.75224       -0.05990
C         -4.41517        3.85278        0.53714
C         -4.51739        1.80443        2.07776
H         -1.28492        4.58300        1.70691
H         -5.38806        4.03461        1.01660
H         -4.58143        4.00684       -0.53928
H         -4.27809        2.44417        2.92847
H         -5.60423        1.69772        2.04379
H         -4.08641        0.81951        2.27296
C         -0.98217       -4.46430        0.28454
C         -1.10318       -3.80756        1.53579
C         -0.84992       -2.44710        1.59105
C         -0.56434       -1.73008        0.45756
C         -0.57299       -2.34390       -0.76773
C         -0.80576       -3.70134       -0.89680
O         -1.00407       -5.88300        0.21882
C         -1.46854       -4.55400        2.82871
H         -0.87100       -1.92855        2.53181
H         -0.39603       -1.73402       -1.63518
C         -0.82562       -4.32584       -2.30079
C          4.06267        1.04305       -0.79155
C          3.56808       -0.27152       -1.00306
C          2.27927       -0.55978       -0.58911
C          1.52078        0.37241        0.06767
C          2.03193        1.60692        0.37358
C          3.32018        1.95760        0.00314
O          5.25337        1.46567       -1.43638
C          4.37100       -1.39694       -1.67687
H          1.84537       -1.52197       -0.79564
H          1.40466        2.30384        0.90439
C          3.86607        3.30843        0.49629
C         -2.21581       -3.61875        3.80686
C         -2.40678       -5.73958        2.53801
C         -0.18427       -5.04976        3.51034
C          0.59732       -4.76184       -2.68243
C         -1.78448       -5.52865       -2.35889
C         -1.32273       -3.30232       -3.34745
C          0.27600       -6.48895        0.34850
H         -3.06767       -3.14706        3.31766
H         -2.58965       -4.17628        4.66537
H         -1.56530       -2.83590        4.19407
H         -3.30081       -5.40190        2.01490
H         -1.92019       -6.48790        1.91742
H         -2.71785       -6.22876        3.46073
H          0.36697       -5.73005        2.86571
H          0.47282       -4.21363        3.74860
H         -0.41213       -5.57509        4.43747
H          1.27527       -3.90898       -2.67723
H          0.98634       -5.49722       -1.98238
H          0.61689       -5.20194       -3.67907
H         -1.84663       -5.93195       -3.36931
H         -1.45448       -6.33140       -1.70428
H         -2.78671       -5.23529       -2.04839
H         -1.46409       -3.77816       -4.31749
H         -2.27578       -2.86948       -3.04484
H         -0.60917       -2.49245       -3.49112
H          0.49456       -7.07667       -0.54290
H          1.04621       -5.72793        0.48051
H          0.27723       -7.16048        1.20690
C          5.01387        2.03863       -2.71110
C          3.83710       -1.61844       -3.10200
C          5.87711       -1.08829       -1.73141
C          4.20715       -2.70439       -0.86933
C          5.39474        3.40844        0.35353
C          3.19904        4.44957       -0.28888
C          3.54141        3.47387        1.99796
H          3.96746       -0.72849       -3.71428
H          4.35858       -2.44118       -3.59040
H          2.77384       -1.85550       -3.08651
H          6.25883       -0.86015       -0.73688
H          6.43784       -1.93555       -2.12548
H          6.08131       -0.23308       -2.37121
H          4.49772       -2.55323        0.16989
H          3.18015       -3.06540       -0.88327
H          4.83273       -3.49585       -1.28133
H          5.77131        4.32996        0.79688
H          5.88240        2.56894        0.84779
H          5.69509        3.39992       -0.69149
H          3.40892        4.37156       -1.35373
H          2.11758        4.42819       -0.16128
H          3.55755        5.41977        0.05405
H          2.46898        3.53040        2.17731
H          3.98452        4.38775        2.39281
H          3.93483        2.63462        2.57083
H          5.96562        2.31159       -3.16738
H          4.49877        1.32426       -3.35099
H          4.39445        2.92815       -2.61132
