45
-71.81596616
C          2.21795        1.49121        2.35335
P          1.47734        0.96728        0.77054
P         -1.00788        0.09043       -0.93413
C         -0.37267       -0.53953       -2.52502
Cl         1.36504       -1.62879        2.54447
H          2.75854        0.66139        2.79946
H         -0.89677       -0.06351       -3.34881
Cl        -1.19808       -2.70828        0.51326
C          0.43143        2.23739        0.02978
C         -0.64424        1.84515       -0.73578
C         -1.44220        2.78745       -1.35106
C         -1.15561        4.13268       -1.19897
C         -0.07244        4.52667       -0.43700
C          0.72599        3.57741        0.17670
H         -2.28313        2.46383       -1.94327
H         -1.77691        4.87217       -1.67678
H          0.15325        5.57409       -0.32224
H          1.58038        3.87313        0.76334
Pd         0.15409       -0.94354        0.78714
H         -0.51628       -1.61470       -2.58315
H          1.43754        1.81164        3.03757
H          0.68829       -0.32329       -2.61036
C         -5.43980       -0.67149       -0.24188
C         -4.72106        0.12719        0.62535
C         -3.37524        0.35375        0.39738
C         -2.76063       -0.21516       -0.69498
C         -3.47184       -1.01570       -1.55953
C         -4.81727       -1.24411       -1.33347
H         -6.48762       -0.85112       -0.06458
H         -5.20515        0.57104        1.47968
H         -2.79793        0.97167        1.06753
H         -2.97407       -1.46513       -2.40323
H         -5.37731       -1.87199       -2.00688
C          4.54951       -0.50700       -2.23435
C          4.37169       -1.17820       -1.04018
C          3.44424       -0.71655       -0.12430
C          2.71054        0.41247       -0.40597
C          2.87540        1.07965       -1.59773
C          3.80155        0.61978       -2.51632
H          5.27095       -0.86601       -2.95007
H          4.94801       -2.06282       -0.82451
H          3.26282       -1.24244        0.79977
H          2.27785        1.95254       -1.80544
H          3.93727        1.13930       -3.45064
H          2.90852        2.31340        2.18913
