87
-129.17921294
P         -1.53503       -0.14199       -0.29360
P          1.74882        0.33875        0.33989
C         -1.08906        1.09188       -1.52033
C          1.51360       -0.73972       -1.09744
C         -0.00192        0.82819       -2.34298
C          0.35500        1.77465       -3.32413
C         -0.40719        2.92394       -3.45700
C         -1.49154        3.15985       -2.63691
C         -1.83086        2.23837       -1.66568
C          2.13132       -1.96160       -0.96142
C          1.98521       -2.93316       -1.93291
C          1.19712       -2.67980       -3.03382
C          0.54920       -1.46583       -3.18372
C          0.72074       -0.46366       -2.20942
Cl         1.10483       -0.45590        3.38735
Cl        -1.65441       -1.97155        2.31218
H         -2.07075        4.06136       -2.75145
H         -2.68261        2.40726       -1.02833
H          2.72252       -2.15757       -0.07891
H          2.47319       -3.88754       -1.82193
H         -0.13930        3.64177       -4.21358
H          1.06439       -3.43850       -3.78643
C         -2.80189       -3.89749       -2.51610
C         -1.86150       -4.00164       -1.50046
C         -1.49277       -2.84908       -0.81798
C         -2.05449       -1.63627       -1.14103
C         -2.99113       -1.54186       -2.14345
C         -3.36893       -2.67881       -2.83367
H         -3.08496       -4.78230       -3.06039
C         -1.22018       -5.30532       -1.17953
H         -0.75498       -2.90389       -0.03569
H         -3.41076       -0.57861       -2.38840
H         -4.09855       -2.61142       -3.62389
C         -4.96968        1.35575        2.30263
C         -3.82236        2.11396        2.17989
C         -2.78342        1.66761        1.38629
C         -2.89859        0.47185        0.71742
C         -4.03953       -0.28634        0.84153
C         -5.09736        0.14769        1.63136
H         -5.77656        1.69537        2.92948
H         -3.73330        3.04956        2.70734
H         -1.88132        2.24654        1.28603
H         -4.10668       -1.23311        0.33310
C         -6.31478       -0.69292        1.79207
C          6.16671        0.13342        1.42097
C          5.77508        0.39605        0.12294
C          4.43013        0.45076       -0.19432
C          3.48950        0.24396        0.78822
C          3.87980       -0.01718        2.07952
C          5.22488       -0.08485        2.41658
H          7.21309        0.09640        1.67223
H          6.51592        0.55977       -0.64242
H          4.10836        0.64932       -1.20465
H          3.12975       -0.17460        2.83340
C          5.64228       -0.34424        3.82152
C          0.64662        4.74444        0.10665
C          0.19112        3.96770        1.15324
C          0.53955        2.63248        1.21932
C          1.31644        2.07956        0.22766
C          1.79956        2.85836       -0.79721
C          1.46642        4.20615       -0.87515
H          0.37792        5.78555        0.04973
H         -0.42274        4.40456        1.92397
H          0.24366        2.02557        2.06032
H          2.43121        2.41469       -1.54777
C          1.96637        5.05762       -1.98878
Pd        -0.08765       -0.58722        1.50078
C          1.52523        1.55983       -4.21905
C         -0.33041       -1.25935       -4.36827
H          2.18198        0.77815       -3.83522
H          1.20174        1.26821       -5.21895
H          2.11792        2.47095       -4.31164
H         -0.94627       -2.14093       -4.55187
H         -1.00542       -0.41521       -4.22397
H          0.26145       -1.07080       -5.26469
H         -1.89696       -6.13740       -1.37855
H         -0.31993       -5.45095       -1.77829
H         -0.93564       -5.35347       -0.12740
H         -6.18871       -1.40146        2.61188
H         -7.19190       -0.08081        2.00672
H         -6.52147       -1.26203        0.88451
H          6.58781       -0.88719        3.85765
H          5.76943        0.59210        4.36654
H          4.89689       -0.94142        4.34881
H          1.13784        5.44061       -2.58624
H          2.52729        5.91055       -1.60414
H          2.62599        4.49725       -2.65267
