105
-153.06429047
Cl         0.02482        1.97019        3.09747
Pd        -0.48473        1.34498        0.99493
P         -1.06787        0.51062       -1.13112
N         -0.63833       -0.97669       -1.97224
C          0.24095       -1.99898       -1.62155
C          0.35391       -2.48848       -0.29596
C          1.28219       -3.51468       -0.01708
C          1.36862       -4.06122        1.38899
C          2.58803       -4.95795        1.65844
C          2.82763       -5.92823        0.49892
C          3.06179       -5.15668       -0.80752
C          2.05592       -4.05913       -1.04646
C          1.89495       -3.58919       -2.34360
C          1.00405       -2.58838       -2.62830
H          0.90222       -2.22410       -3.63572
H          2.49298       -4.01548       -3.13124
H          4.06526       -4.71491       -0.80124
H          3.67155       -6.59818        0.71685
H          3.47775       -4.33000        1.79351
H          1.37443       -3.22134        2.09256
C         -0.65399       -2.11914        0.72822
C         -0.24823       -1.50584        1.94444
C         -1.18885       -1.37363        2.97030
C         -2.47929       -1.80507        2.80544
C         -2.89896       -2.39160        1.61759
C         -4.32623       -2.87574        1.52901
C         -4.77823       -3.25027        0.10844
C         -3.68785       -4.04210       -0.61780
C         -2.39310       -3.22187       -0.71609
C         -1.98594       -2.54876        0.57266
H         -1.57071       -3.86195       -1.05923
H         -4.03061       -4.35388       -1.61461
H         -4.99922       -2.33823       -0.45935
H         -4.98730       -2.10693        1.94826
H         -3.18876       -1.69048        3.60748
H         -0.89024       -0.90042        3.88921
N          1.04099       -0.98392        2.12719
P          1.58924        0.22282        0.96623
C          2.61407       -0.35261       -0.37499
C          3.61194       -1.26828       -0.14646
C          4.44344       -1.64314       -1.18657
C          4.27797       -1.09996       -2.45428
C          3.28318       -0.15119       -2.65207
C          2.45522        0.22423       -1.61013
H          1.67839        0.95628       -1.75190
H          3.15824        0.28914       -3.62641
C          5.17406       -1.50251       -3.57279
H          5.22608       -2.36319       -1.01963
H          3.73299       -1.68435        0.84109
C          2.52132        1.54531        1.74691
C          3.25120        1.29982        2.88484
C          3.97198        2.32462        3.47092
C          3.96372        3.59943        2.92012
C          3.23585        3.82063        1.75881
C          2.51665        2.79488        1.17291
H          1.94826        2.96409        0.27136
H          3.23448        4.80229        1.31671
C          4.75180        4.70156        3.53798
H          4.54595        2.13920        4.36268
H          3.26094        0.30833        3.30774
H          1.18424       -0.53297        3.02151
H         -0.90722       -0.87911       -2.94334
C         -0.60259        1.90830       -2.16847
C         -0.89649        3.18792       -1.76195
C         -0.52598        4.26670       -2.54149
C          0.13629        4.07222       -3.74550
C          0.42524        2.77442       -4.14400
C          0.05046        1.69828       -3.36085
H          0.28273        0.69373       -3.67189
H          0.94940        2.61198       -5.07036
C          0.56472        5.23405       -4.57265
H         -0.74845        5.26898       -2.21729
H         -1.42046        3.33656       -0.83263
C         -2.86494        0.50555       -1.08698
C         -3.53521        0.74498       -2.26329
C         -4.91879        0.74125       -2.28210
C         -5.63997        0.50892       -1.11908
C         -4.94525        0.26082        0.05608
C         -3.56306        0.24992        0.06762
H         -3.02204        0.05622        0.97955
H         -5.49446        0.07788        0.96362
C         -7.12851        0.48203       -1.13774
H         -5.44684        0.92278       -3.20257
H         -2.97267        0.93586       -3.16394
Cl        -2.34364        2.61323        1.05474
H          3.04976       -5.84455       -1.66272
H          2.46874       -5.50499        2.60434
H          1.95333       -6.58149        0.38487
H          0.44669       -4.61536        1.60149
H         -3.48858       -4.97187       -0.07031
H         -2.50628       -2.44999       -1.48619
H         -4.43691       -3.74426        2.18928
H         -5.72041       -3.81591        0.13327
H          6.05745       -0.86374       -3.61103
H          5.50850       -2.53442       -3.45640
H          4.66194       -1.42791       -4.53318
H          5.71802        4.81139        3.04375
H          4.22294        5.65248        3.45989
H          4.93479        4.51138        4.59641
H          0.58871        4.97575       -5.63226
H         -0.11878        6.07583       -4.45303
H          1.56272        5.56720       -4.28459
H         -7.49542       -0.53247       -1.29973
H         -7.53949        0.84212       -0.19356
H         -7.52448        1.11471       -1.93329
