111
-148.55256947
P         -2.29725        2.40147       -0.28427
P         -0.05162        0.28336        0.44481
C         -1.76954        2.21228        1.43380
C         -0.82348        1.26318        1.75077
C         -2.13423        4.15312       -0.85274
C         -1.01420        4.27996       -1.86262
C         -2.32868        2.99036        2.42671
H         -3.05743        3.74109        2.16674
C         -1.95110        2.79908        3.74468
H         -2.38820        3.40406        4.52218
C         -1.02138        1.82830        4.06476
H         -0.73324        1.67321        5.09146
C         -0.45702        1.05679        3.06472
H          0.26593        0.29091        3.29930
Pd        -1.16698        0.82187       -1.53089
Cl        -2.62154        1.16514       -3.20047
Cl        -0.03436       -0.88286       -2.46712
C         -3.53317        4.47845       -1.40948
C         -4.12259        2.15941       -0.50736
H         -0.05654        3.97280       -1.43468
H         -1.20414        3.64459       -2.73018
H         -0.91293        5.30742       -2.22030
H         -3.52637        4.31441       -2.49581
H         -3.76116        5.54658       -1.27431
H         -4.23492        1.55210       -1.41510
C         -4.63190        3.58945       -0.76236
C         -4.76426        1.46310        0.67387
H         -1.92550        4.75098        0.04419
H         -4.94546        4.03007        0.19392
H         -5.53764        3.56692       -1.38731
H         -5.83548        1.31770        0.51698
H         -4.31313        0.48505        0.84947
H         -4.64298        2.04761        1.58664
C         -1.22576       -4.09514        0.84388
C          0.13736       -3.76658        0.61669
C          0.47837       -2.42974        0.49935
C         -0.45719       -1.44367        0.66723
C         -1.75061       -1.75111        0.99923
C         -2.15901       -3.06704        1.14386
O         -1.66835       -5.43469        0.69590
C          1.25804       -4.81038        0.47641
H          1.48554       -2.14435        0.25261
H         -2.44784       -0.94221        1.13899
C         -3.59427       -3.32087        1.63530
C          4.43002        1.12016        0.11208
C          3.78919        0.28419       -0.83647
C          2.42514        0.08570       -0.71577
C          1.71471        0.60247        0.33562
C          2.35188        1.32926        1.30837
C          3.71321        1.57648        1.24715
O          5.77384        1.53256       -0.09172
C          4.53672       -0.38168       -2.00259
H          1.88441       -0.46162       -1.46618
H          1.76471        1.72021        2.11903
C          4.38669        2.35370        2.38962
C          0.84871       -6.18290        1.03849
C          1.63928       -4.95164       -1.00649
C          2.49959       -4.34963        1.27290
C         -3.80615       -4.77083        2.10418
C         -3.88823       -2.40912        2.84773
C         -4.58697       -2.99420        0.50707
C         -2.10040       -5.72893       -0.62222
H          0.03763       -6.61980        0.46074
H          1.68402       -6.88233        1.01421
H          0.51182       -6.09056        2.07039
H          2.46887       -5.64699       -1.13160
H          0.80248       -5.31948       -1.59622
H          1.93849       -3.99095       -1.42341
H          3.27448       -5.11573        1.26068
H          2.93650       -3.44343        0.85690
H          2.23841       -4.15283        2.31228
H         -4.79659       -4.90213        2.53934
H         -3.71561       -5.47065        1.27700
H         -3.06553       -5.04388        2.85504
H         -4.87459       -2.61828        3.26099
H         -3.15277       -2.56921        3.63561
H         -3.86715       -1.35471        2.57836
H         -5.61512       -3.12983        0.84156
H         -4.47521       -1.96265        0.17527
H         -4.42806       -3.63744       -0.35611
H         -2.89525       -5.04600       -0.91695
H         -1.27211       -5.62178       -1.31992
H         -2.47157       -6.75334       -0.65892
C          5.90373        2.72549       -0.85515
C          4.47972        0.53787       -3.23165
C          5.99962       -0.68353       -1.62989
C          3.88166       -1.73405       -2.36511
C          4.36486        3.85536        2.06691
C          3.63769        2.12666        3.72281
C          5.83538        1.87801        2.60258
H          4.94000        1.50127       -3.02487
H          4.99899        0.09053       -4.07875
H          3.44692        0.72100       -3.52731
H          6.55770        0.22886       -1.43667
H          6.04714       -1.29987       -0.73272
H          6.50704       -1.21565       -2.43418
H          4.47361       -2.26309       -3.11153
H          3.80553       -2.37223       -1.48554
H          2.88474       -1.60332       -2.78287
H          4.81882        4.43400        2.87101
H          4.90976        4.06986        1.15086
H          3.34157        4.20603        1.93444
H          4.18663        2.56756        4.55462
H          2.65002        2.58545        3.71401
H          3.52112        1.06240        3.92593
H          6.45150        2.08014        1.72987
H          5.86332        0.80517        2.79021
H          6.29290        2.38331        3.45277
H          6.47142        3.46177       -0.28626
H          6.44631        2.51556       -1.77663
H          4.92070        3.13121       -1.09741
