72
-98.10402853
Fe         0.02001        2.78967        0.01861
P          1.89832       -0.06304       -0.06822
P         -1.85189       -0.03202        0.05303
C          1.45301        1.54350        0.68810
C          0.44087        1.73903        1.71088
C          0.38332        3.15533        2.02646
C          1.36977        3.83709        1.20847
C          2.03426        2.84108        0.38492
C         -1.41426        1.59404       -0.68230
C         -1.98770        2.88462       -0.32845
C         -1.32319        3.90702       -1.11784
C         -0.34813        3.24970       -1.96745
C         -0.41989        1.82178       -1.71492
C          3.32181       -0.74312        0.91007
C          4.50479        0.03683        0.31281
C          2.83381        0.20453       -1.65601
C          4.30720        0.33733       -1.19984
C         -3.19052       -0.77143       -1.00594
C         -4.37602        0.13965       -0.64348
C         -2.95964        0.31051        1.51302
C         -4.33546        0.57427        0.85260
H         -0.15985        0.95062        2.16535
H         -0.27452        3.62156        2.76326
H          1.58479        4.90774        1.21993
H          2.83495        3.02680       -0.33398
H         -2.77003        3.05655        0.41316
H          0.17677        1.05249       -2.20096
Cl         1.60364       -3.05084       -0.19439
Cl        -1.60127       -3.00932        0.37642
Pd         0.01472       -1.47081        0.04881
H          3.40423       -1.80818        0.66538
C          3.17755       -0.55661        2.41670
H          2.46981        1.14170       -2.09350
C          2.64697       -0.94951       -2.64172
H          5.44822       -0.50297        0.48882
H          4.60501        0.98229        0.86565
H          4.69732        1.33595       -1.44642
H          4.92026       -0.35887       -1.78878
H         -1.52742        4.97929       -1.08365
H          0.30693        3.73960       -2.69133
H          4.14015       -0.77939        2.89766
H          3.43658       -0.89973       -3.40463
H         -3.37712       -1.78618       -0.63547
C         -2.85038       -0.81203       -2.49836
H         -2.57242        1.20914        2.00806
C         -3.02349       -0.84733        2.50655
H         -5.33001       -0.35281       -0.88838
H         -4.33277        1.02871       -1.28983
H         -4.61621        1.63313        0.95157
H         -5.10508        0.02526        1.41315
H         -3.77631       -0.70780       -3.08102
H         -3.31635       -1.75594        1.96442
C          2.08485       -1.41608        3.02452
H          1.11682       -1.16716        2.59458
H          2.25969       -2.47603        2.83082
H          2.00781       -1.28375        4.10610
C          1.29162       -0.97642       -3.32560
H          1.13144       -0.07953       -3.92699
H          1.18539       -1.83728       -3.98973
H          0.48571       -1.02870       -2.59594
C         -2.13335       -2.08967       -2.91062
H         -1.24472       -2.26329       -2.30469
H         -2.77569       -2.96179       -2.77434
H         -1.82431       -2.06983       -3.95807
C         -1.73315       -1.08669        3.26810
H         -0.93063       -1.36676        2.58885
H         -1.41577       -0.19249        3.80763
H         -1.83187       -1.89341        3.99809
H          2.98934        0.50451        2.62607
H          2.82333       -1.89214       -2.10714
H         -2.25204        0.07220       -2.75208
H         -3.84004       -0.66036        3.21795
