45
-71.81627084
C          2.40680        0.98363        2.49285
P          1.55707        0.76711        0.89348
P         -1.04839        0.26902       -0.84393
C         -0.44605       -0.07578       -2.53156
Cl         1.52678       -2.10998        2.05077
H          3.11526        1.80473        2.43157
H         -0.90900        0.60587       -3.23929
Cl        -1.21581       -2.75046        0.08984
C          0.49638        2.16243        0.45607
C         -0.62285        1.94057       -0.31709
C         -1.42738        2.99504       -0.69623
C         -1.10449        4.28133       -0.30108
C          0.02165        4.50554        0.46715
C          0.82631        3.44467        0.84444
H         -2.30257        2.80358       -1.29637
H         -1.73114        5.10740       -0.59447
H          0.27579        5.50760        0.77131
H          1.71321        3.61014        1.43413
Pd         0.13666       -1.05214        0.63979
H         -0.68781       -1.09797       -2.80859
H          2.94301        0.07471        2.75018
H          0.63157        0.05329       -2.57294
C         -5.49759       -0.47242       -0.25420
C         -4.96721       -0.50969       -1.52867
C         -3.61578       -0.28548       -1.72084
C         -2.80621       -0.02583       -0.63833
C         -3.33028        0.01506        0.63360
C         -4.68154       -0.21025        0.82834
H         -6.55004       -0.64975       -0.10404
H         -5.60438       -0.71515       -2.37316
H         -3.19090       -0.31378       -2.71101
H         -2.67920        0.22110        1.46894
H         -5.09429       -0.18342        1.82340
C          4.39162       -0.17382       -2.53088
C          3.70187        1.02312       -2.52101
C          2.84925        1.31861       -1.47270
C          2.69863        0.41801       -0.44368
C          3.37481       -0.77972       -0.45374
C          4.22875       -1.07790       -1.49938
H          5.05543       -0.40487       -3.34794
H          3.82535        1.72516       -3.32919
H          2.29674        2.24412       -1.45417
H          3.20499       -1.48334        0.34560
H          4.75904       -2.01590       -1.51160
H          1.67987        1.19646        3.27142
