105
-153.07087754
Cl         0.45391        3.14612        2.47428
Pd        -0.16400        1.79549        0.78609
P         -0.75829        0.52058       -1.12728
N          0.38412       -0.73501       -1.59324
C          0.53802       -2.11174       -1.38308
C          0.02038       -2.81882       -0.26523
C          0.38419       -4.16722       -0.06694
C          0.03507       -4.85179        1.23348
C         -0.02125       -6.38053        1.11011
C          1.27704       -6.90908        0.49158
C          1.51978       -6.29701       -0.89933
C          1.16022       -4.83394       -1.01887
C          1.62534       -4.13206       -2.12351
C          1.34451       -2.80075       -2.28772
H          1.74133       -2.26392       -3.13208
H          2.23199       -4.64612       -2.84988
H          2.57109       -6.42408       -1.18755
H          2.11802       -6.66018        1.15109
H         -0.21461       -6.84947        2.08528
H          0.79013       -4.57227        1.97815
C         -0.72388       -2.10723        0.80024
C         -0.00675       -1.19740        1.61282
C         -0.67536       -0.54552        2.64789
C         -2.00188       -0.79564        2.88874
C         -2.71818       -1.70868        2.12157
C         -4.16117       -1.96838        2.49189
C         -4.91316       -2.95882        1.58123
C         -3.97739       -4.03113        1.01271
C         -2.83482       -3.36756        0.23327
C         -2.07769       -2.36982        1.07087
H         -2.15416       -4.12092       -0.17949
H         -4.52659       -4.74338        0.38079
H         -5.37490       -2.41302        0.74982
H         -4.68936       -1.00688        2.51842
H         -2.50519       -0.28375        3.69138
H         -0.13468        0.16477        3.24780
N          1.34475       -0.95788        1.35071
P          1.88069        0.70360        1.11631
C          2.69123        0.90253       -0.46830
C          2.38561        1.99566       -1.24499
C          2.86892        2.07446       -2.53726
C          3.65477        1.05775       -3.06067
C          3.98438       -0.01835       -2.24799
C          3.50335       -0.09616       -0.95331
H          3.73255       -0.94732       -0.33201
H          4.60986       -0.80234       -2.63965
C          4.16641        1.14124       -4.45636
H          2.62045        2.92050       -3.15520
H          1.75299        2.77506       -0.85084
C          2.87700        1.31757        2.46479
C          2.85751        0.64349        3.66153
C          3.60233        1.11613        4.72744
C          4.36288        2.27098        4.59873
C          4.37458        2.93142        3.37693
C          3.62914        2.45715        2.31248
H          3.62539        2.97293        1.36530
H          4.96872        3.82222        3.26507
C          5.18190        2.76983        5.73805
H          3.59587        0.59030        5.66684
H          2.26346       -0.25190        3.75187
H          1.75502       -1.49837        0.60247
H          1.20447       -0.22615       -1.90120
C         -0.64450        1.74443       -2.44101
C         -1.04006        3.04665       -2.25087
C         -0.91709        3.96394       -3.27640
C         -0.39759        3.58288       -4.50602
C         -0.02905        2.25759       -4.69176
C         -0.15253        1.34329       -3.66101
H          0.14001        0.31554       -3.80243
H          0.35874        1.94644       -5.64669
C         -0.28006        4.56583       -5.61827
H         -1.22662        4.98438       -3.12795
H         -1.45332        3.33782       -1.30064
C         -2.41389       -0.15043       -1.27530
C         -2.61650       -1.03988       -2.30477
C         -3.88551       -1.53489       -2.55274
C         -4.95937       -1.14540       -1.76443
C         -4.73835       -0.23495       -0.73947
C         -3.47201        0.26400       -0.50301
H         -3.31051        1.00306        0.26148
H         -5.56701        0.09161       -0.13471
C         -6.32111       -1.68523       -2.03188
H         -4.04745       -2.23210       -3.35691
H         -1.77686       -1.34177       -2.91133
Cl        -2.18572        2.76541        0.69351
H          0.94426       -6.85303       -1.64914
H         -0.86897       -6.66151        0.47263
H          1.26208       -8.00683        0.43789
H         -0.90989       -4.46531        1.63010
H         -3.55977       -4.62375        1.83614
H         -3.24515       -2.84879       -0.63691
H         -4.18243       -2.33778        3.52430
H         -5.75035       -3.42339        2.12074
H          5.12623        1.65856       -4.48710
H          4.30465        0.14761       -4.88498
H          3.47030        1.68365       -5.09791
H          4.71508        2.52774        6.69382
H          6.17644        2.32190        5.72571
H          5.29984        3.85339        5.69335
H          0.55045        4.31445       -6.27950
H         -1.19246        4.58543       -6.21577
H         -0.10552        5.57284       -5.23677
H         -6.71366       -1.29758       -2.97291
H         -6.30185       -2.77413       -2.09736
H         -7.02027       -1.41266       -1.24016
