72
-108.40410881
Cl        -1.75764        0.72546        2.69119
Cl         1.00458       -0.97168        2.68054
P          1.17011       -1.10510       -0.30584
P         -2.28161        0.10523       -0.34568
C         -3.24855       -1.51297       -0.12821
C         -3.59515       -1.69331        1.35089
C         -4.51780       -1.47595       -0.97154
C         -3.37637        1.63767       -0.07074
C         -4.19924        1.93512       -1.33060
C         -1.47556        0.42557       -2.02215
C         -1.51174       -0.73724       -2.99165
C          1.11702        0.26266       -1.50719
C         -0.07047        0.99881       -1.94295
C          0.39476        2.12240       -2.75844
C          1.84207        2.07036       -2.82905
C          2.28504        0.92039       -2.06350
C         -2.37379       -2.68680       -0.54927
H         -2.70071       -1.66872        1.97349
H         -4.27529       -0.92700        1.71268
H         -5.21458       -0.72016       -0.61292
H         -5.03435       -2.43625       -0.92918
C         -4.32475        1.47288        1.11278
H         -4.97701        2.66911       -1.11320
H         -4.68810        1.04209       -1.71569
H         -2.10085        1.21896       -2.44223
H         -1.15565       -0.43409       -3.97839
H         -2.51507       -1.14291       -3.11732
H         -0.84926       -1.53235       -2.65731
H         -0.24749        2.81705       -3.30317
H          2.48413        2.75566       -3.38734
Pd        -0.49817       -0.28995        1.14615
H          3.31788        0.60849       -1.89260
C         -2.41978        2.79017        0.19743
H         -3.59004        2.35944       -2.12786
H         -3.79247        1.17247        2.01293
H         -4.82502        2.41688        1.33375
H         -5.10500        0.74352        0.90309
H         -1.91490        2.65352        1.15255
H         -1.66618        2.86445       -0.58791
H         -2.95542        3.74055        0.24175
H         -4.08253       -2.65569        1.51553
H         -4.29703       -1.26568       -2.01717
H         -1.43180       -2.67468       -0.00418
H         -2.86728       -3.63504       -0.32944
H         -2.16077       -2.68117       -1.61503
C          2.86630       -1.17825        0.33135
C          3.37602       -2.20499        1.08667
C          4.69946       -1.87911        1.38289
C          4.94528       -0.66448        0.79208
O          3.82888       -0.22355        0.14242
H          2.84463       -3.08720        1.40286
H          5.39206       -2.46491        1.96490
H          5.88131       -0.12092        0.82831
C          0.79048       -2.71081       -1.03100
C          0.70354       -3.86459       -0.29167
C          0.39868       -4.89683       -1.18004
C          0.31294       -4.32796       -2.42717
O          0.54777       -2.98466       -2.34940
H          0.82581       -3.94402        0.77669
H          0.25717       -5.93671       -0.93474
H          0.08990       -4.85302       -3.34768
Fe         1.25055        2.16690       -0.88887
C          2.12216        2.00692        0.96617
C          0.81858        2.62272        1.08656
C          0.81056        3.82880        0.28157
C          2.11750        3.95502       -0.33685
C          2.93650        2.84027        0.10432
H          2.43790        1.08536        1.45886
H          0.01398        2.25595        1.72584
H         -0.01420        4.53845        0.18894
H          2.44276        4.77074       -0.98641
H          3.97726        2.65229       -0.16842
