64
-97.21690753
Cl        -1.54851       -0.97070       -2.68967
Cl         1.50155       -1.49107       -2.92666
P          1.93323       -0.65544        0.25958
C          2.13357       -2.32036        1.04511
C          3.71297       -0.27013       -0.10209
P         -1.27516       -0.12906        0.46487
C          1.28735        0.58931        1.43345
C         -0.13833        0.82920        1.53555
C         -0.32702        1.95376        2.44058
C          0.97775        2.38170        2.91508
C          1.98041        1.53379        2.29544
H         -1.28738        2.35807        2.76652
H          1.16972        3.18799        3.62644
Pd         0.15417       -0.92278       -1.22304
H          3.06123        1.59645        2.43696
C         -5.02347        2.11392       -0.86027
C         -4.05199        2.78422       -0.14444
C         -2.91306        2.11550        0.26370
C         -2.74232        0.78530       -0.04750
C         -3.71458        0.11462       -0.75424
C         -4.85705        0.77790       -1.16505
H         -5.91174        2.63340       -1.18104
H         -4.17975        3.82712        0.09541
H         -2.15103        2.63280        0.81873
H         -3.57248       -0.92774       -0.99041
H         -5.61307        0.25209       -1.72477
C         -2.61334       -3.95868        2.50554
C         -2.38851       -2.82109        3.25658
C         -1.98794       -1.65232        2.63385
C         -1.81335       -1.63446        1.26958
C         -2.04231       -2.76202        0.51531
C         -2.44300       -3.93136        1.13494
H         -2.92528       -4.86953        2.99010
H         -2.52357       -2.84292        4.32550
H         -1.80370       -0.75515        3.20352
H         -1.91388       -2.71699       -0.55460
H         -2.62285       -4.81751        0.54871
C          4.04106       -0.39767       -1.57400
H          3.89712        0.75413        0.24766
C          4.46200       -1.29978        0.76667
H          4.66036       -0.87649        1.76235
C          3.64217       -2.60928        0.91694
H          5.44912       -1.50710        0.32806
C          1.64589       -2.28703        2.47731
H          1.54028       -3.02862        0.45058
H          3.98301       -3.18211        1.79135
H          3.82778       -3.25726        0.04805
H          2.21279       -1.55687        3.05835
H          0.59375       -2.00204        2.53227
H          1.75785       -3.25922        2.96311
H          3.81543       -1.40461       -1.92880
H          3.46378        0.29926       -2.18302
H          5.09982       -0.20965       -1.76527
Fe         0.85316        2.45815        0.85789
C          2.23689        3.17683       -0.53201
C          1.41785        4.23670        0.03158
C          0.02669        3.95667       -0.28225
C         -0.01132        2.68741       -0.98634
C          1.34870        2.21942       -1.15973
H          3.32713        3.12238       -0.50525
H          1.78960        5.12395        0.54957
H         -0.83142        4.58444       -0.03161
H         -0.90006        2.20312       -1.39579
H          1.64154        1.32918       -1.71718
