171
-217.83902842
P         -1.47968        0.27778       -0.30696
P          1.70246       -0.61849       -0.15886
C         -0.74112        0.99632       -1.78422
C          0.98184       -1.71862       -1.40287
C         -0.02426        0.19617       -2.66445
C          0.56665        0.78761       -3.79870
C          0.38835        2.14182       -4.02636
C         -0.32336        2.92127       -3.14073
C         -0.87622        2.34454       -2.01458
C          1.20371       -3.06614       -1.24161
C          0.58329       -3.98507       -2.06460
C         -0.29282       -3.54794       -3.03391
C         -0.53852       -2.19797       -3.21470
C          0.13772       -1.25924       -2.41133
Cl         1.39665       -0.41157        3.11254
Cl        -1.73055       -1.04714        2.73146
C         -1.52724       -1.77473       -4.24468
C          1.36681       -0.02165       -4.75926
H         -0.44564        3.97573       -3.32648
H         -1.40544        2.95727       -1.30477
H          1.86950       -3.40762       -0.46704
H          0.76926       -5.03897       -1.93594
H          0.81790        2.58617       -4.90803
H         -0.80033       -4.25922       -3.66364
C         -4.19696       -3.19797       -1.35325
C         -3.10456       -3.41969       -0.52470
C         -2.29224       -2.33611       -0.22001
C         -2.57003       -1.08705       -0.71814
C         -3.65105       -0.88846       -1.54043
C         -4.48796       -1.94434       -1.87920
H         -4.83937       -4.02719       -1.58216
H         -1.43100       -2.46396        0.41077
H         -3.84532        0.09723       -1.92318
C         -3.85260        3.58418        1.75317
C         -4.09067        3.29645        0.41522
C         -3.36389        2.26629       -0.16682
C         -2.42339        1.56664        0.55074
C         -2.20222        1.87602        1.87160
C         -2.91531        2.88596        2.50210
H         -4.41288        4.36433        2.23297
H         -3.51248        2.03198       -1.20670
H         -1.47416        1.31596        2.42589
C          5.06575       -2.67474        2.08481
C          3.76609       -3.14122        2.24333
C          2.75700       -2.49636        1.54241
C          3.04008       -1.43445        0.72052
C          4.32887       -0.98314        0.57926
C          5.37175       -1.59760        1.26135
H          5.86467       -3.15126        2.62110
H          1.73186       -2.80448        1.66656
H          4.51263       -0.13756       -0.05868
C          2.95752        3.54289       -1.41154
C          2.01849        3.40502       -0.39728
C          1.64938        2.11809       -0.02997
C          2.17923        1.02876       -0.67963
C          3.09891        1.18236       -1.68721
C          3.51765        2.45232       -2.06583
H          3.27284        4.53102       -1.69197
H          0.94166        1.95779        0.76373
H          3.48748        0.30197       -2.17021
Pd        -0.03302       -0.46091        1.38290
C         -2.68781       -5.83103       -1.08989
C         -2.84452       -4.81658        0.05725
C         -4.03372       -5.21871        0.94802
C         -1.56228       -4.84634        0.91436
H         -3.59055       -5.88750       -1.69681
H         -1.86307       -5.54898       -1.74279
H         -2.48410       -6.82910       -0.70241
H         -4.96033       -5.25753        0.37645
H         -3.87381       -6.20052        1.39324
H         -4.16844       -4.49911        1.75538
H         -1.38388       -5.84592        1.31024
H         -0.68991       -4.56464        0.32606
H         -1.64034       -4.16617        1.76233
C         -6.73843       -0.86201       -1.92311
C         -5.72845       -1.68118       -2.74576
C         -6.39965       -2.99492       -3.19136
C         -5.33331       -0.89259       -4.00983
H         -6.30542        0.08556       -1.60558
H         -7.63444       -0.64563       -2.50457
H         -7.03820       -1.40673       -1.02806
H         -5.69780       -3.62618       -3.73630
H         -6.77812       -3.55519       -2.33681
H         -7.24524       -2.79329       -3.84889
H         -4.59962       -1.44430       -4.59619
H         -6.20223       -0.71556       -4.64348
H         -4.90600        0.07785       -3.76149
C         -6.09551        3.13587       -1.09043
C         -5.08017        4.09675       -0.44354
C         -4.29843        4.83958       -1.54303
C         -5.85545        5.13136        0.39449
H         -6.83747        3.68488       -1.66999
H         -5.60434        2.43482       -1.76376
H         -6.62041        2.56004       -0.32844
H         -4.96744        5.43541       -2.16360
H         -3.55801        5.50832       -1.10421
H         -3.77275        4.14120       -2.19352
H         -5.18076        5.86313        0.83837
H         -6.56743        5.67585       -0.22570
H         -6.41593        4.64661        1.19370
C         -2.41220        4.69994        4.17280
C         -2.72656        3.20318        3.99315
C         -1.56933        2.38842        4.60638
C         -4.02317        2.85240        4.74449
H         -3.22380        5.32579        3.80423
H         -2.25963        4.94144        5.22458
H         -1.50670        4.97153        3.63213
H         -1.76875        1.31839        4.55280
H         -0.63043        2.59027        4.09148
H         -1.43119        2.64295        5.65695
H         -4.26602        1.79744        4.61840
H         -3.92303        3.05140        5.81131
H         -4.86434        3.43601        4.37185
C          2.46921       -3.77349        4.28829
C          3.39853       -4.30097        3.17891
C          4.64618       -4.92185        3.83505
C          2.67291       -5.39582        2.37365
H          2.19802       -4.56830        4.98273
H          2.95773       -2.98049        4.85389
H          1.54912       -3.36442        3.87235
H          5.33385       -5.30705        3.08234
H          5.17468       -4.18931        4.44476
H          4.36867       -5.75163        4.48501
H          2.42190       -6.24521        3.00867
H          1.74644       -5.02179        1.93947
H          3.30212       -5.75627        1.56009
C          7.32443       -0.66773        2.52868
C          6.82293       -1.11007        1.14185
C          6.94345        0.08553        0.17564
C          7.70370       -2.25566        0.61042
H          7.30838       -1.49439        3.23794
H          8.34723       -0.29535        2.47353
H          6.69603        0.12796        2.92839
H          6.61123       -0.18590       -0.82601
H          6.34872        0.93127        0.52047
H          7.97808        0.41982        0.10021
H          8.73801       -1.93157        0.49624
H          7.69525       -3.10929        1.28710
H          7.34711       -2.59553       -0.36177
C          0.36685        4.27807        1.33180
C          1.45472        4.64835        0.30525
C          0.82780        5.59488       -0.73519
C          2.59821        5.36958        1.04063
H         -0.03804        5.17420        1.80074
H         -0.46016        3.75386        0.85443
H          0.76873        3.64457        2.12201
H          0.01099        5.10205       -1.26034
H          0.42594        6.48762       -0.25625
H          1.55921        5.91562       -1.47570
H          3.06130        4.70831        1.77283
H          3.37206        5.69277        0.34516
H          2.23042        6.25084        1.56590
C          4.00244        3.51948       -4.28532
C          4.59079        2.67534       -3.14070
C          5.09714        1.34239       -3.72547
C          5.78783        3.41347       -2.51269
H          3.15429        3.01070       -4.74109
H          3.65836        4.48906       -3.92735
H          4.74616        3.69511       -5.06239
H          5.54249        0.71836       -2.95122
H          4.28684        0.78485       -4.19325
H          5.85820        1.51778       -4.48569
H          5.49479        4.39020       -2.12960
H          6.20159        2.83940       -1.68377
H          6.57981        3.56691       -3.24551
H         -1.12888       -1.91250       -5.25072
H          2.13390        0.58546       -5.24183
H         -1.80318       -0.72579       -4.12847
H         -2.44072       -2.36562       -4.16278
H          0.73203       -0.43729       -5.54256
H          1.86907       -0.84886       -4.25536
