111
-148.55578753
P         -2.55816        2.02419        0.89045
P          0.14891        0.41695        0.50729
C         -1.44574        1.78197        2.30171
C         -0.25227        1.11637        2.12072
C         -3.39420        3.67430        0.92942
C         -2.81754        4.60426       -0.11571
C         -1.79182        2.24543        3.55477
H         -2.73521        2.74700        3.69572
C         -0.93352        2.04857        4.62293
H         -1.20269        2.41036        5.60185
C          0.26501        1.38646        4.43721
H          0.93168        1.23109        5.26942
C          0.60470        0.91430        3.18212
H          1.52895        0.38111        3.02235
Pd        -1.31512        1.45028       -0.95802
Cl        -3.01108        2.05679       -2.29329
Cl         0.04234        0.83344       -2.64316
C         -4.87681        3.31297        0.71856
C         -4.03070        0.90476        0.91140
H         -2.94118        4.18647       -1.11606
H         -3.31332        5.57772       -0.10153
H         -1.74832        4.76482        0.04217
H         -5.10898        3.39110       -0.35255
H         -5.52616        4.04943        1.21592
H         -4.12115        0.50298       -0.10682
C         -5.19198        1.87106        1.21005
C         -3.86287       -0.21338        1.91711
H         -3.23861        4.08104        1.93666
H         -5.37120        1.88424        2.29400
H         -6.12520        1.49807        0.76119
H         -4.74545       -0.85628        1.95152
H         -3.00050       -0.83692        1.67279
H         -3.70405        0.18768        2.91983
C         -1.19201       -3.92872        0.24559
C         -1.04927       -3.31840        1.51861
C         -0.61906       -2.00303        1.57234
C         -0.40791       -1.28363        0.42586
C         -0.64879       -1.83702       -0.80331
C         -1.07906       -3.14498       -0.93077
O         -1.41009       -5.32892        0.15067
C         -1.32611       -4.07218        2.82882
H         -0.43766       -1.52048        2.51635
H         -0.48513       -1.22281       -1.67150
C         -1.38913       -3.68845       -2.33380
C          4.50278        0.82148       -0.76035
C          3.81025       -0.39697       -0.97581
C          2.48763       -0.47576       -0.57600
C          1.87694        0.56573        0.07155
C          2.56995        1.70938        0.37023
C          3.89964        1.85192        0.00657
O          5.78094        1.02512       -1.34510
C          4.44641       -1.60928       -1.67337
H          1.90527       -1.35560       -0.78515
H          2.05035        2.49821        0.88644
C          4.65487        3.12574        0.41752
C         -1.77258       -3.09581        3.94100
C         -2.46277       -5.09439        2.64671
C         -0.04382       -4.78235        3.28786
C         -1.92572       -2.56002       -3.24531
C         -0.10163       -4.25106       -2.95519
C         -2.47663       -4.77651       -2.28210
C         -0.21549       -6.09409        0.05113
H         -0.96686       -2.42642        4.23863
H         -2.61762       -2.49210        3.61191
H         -2.08026       -3.64121        4.83288
H         -3.36380       -4.60456        2.27888
H         -2.18908       -5.86851        1.93395
H         -2.70376       -5.58478        3.58953
H         -0.20606       -5.31385        4.22523
H          0.29377       -5.50353        2.54757
H          0.76059       -4.06343        3.44181
H         -1.15734       -1.82258       -3.47205
H         -2.27183       -2.96256       -4.19687
H         -2.76347       -2.04639       -2.77435
H          0.31170       -5.05320       -2.34818
H         -0.28976       -4.64553       -3.95335
H          0.65737       -3.47341       -3.03773
H         -3.37819       -4.39463       -1.80421
H         -2.74074       -5.11466       -3.28378
H         -2.14395       -5.64478       -1.71917
H         -0.19898       -6.62818       -0.89865
H          0.65897       -5.44549        0.11819
H         -0.18608       -6.82910        0.85541
C          5.73537        1.59540       -2.64713
C          3.82787       -2.92653       -1.14979
C          4.18759       -1.51432       -3.18478
C          5.95841       -1.68278       -1.39475
C          4.10310        3.67976        1.75099
C          6.15114        2.83770        0.63815
C          4.47651        4.19606       -0.66982
H          3.87708       -2.97247       -0.06219
H          2.78664       -3.03264       -1.45026
H          4.36304       -3.78930       -1.54580
H          4.61375       -2.36926       -3.70903
H          3.11766       -1.49006       -3.39085
H          4.62434       -0.61076       -3.60337
H          6.14992       -1.70845       -0.32254
H          6.39580       -2.57645       -1.83919
H          6.48052       -0.82245       -1.80557
H          4.09776        2.90684        2.51917
H          4.71740        4.50489        2.11076
H          3.08913        4.06124        1.64102
H          6.63404        2.51902       -0.28221
H          6.67311        3.72597        0.99313
H          6.28496        2.04775        1.37641
H          4.87360        3.85858       -1.62408
H          4.99040        5.11788       -0.39854
H          3.42127        4.42704       -0.81353
H          4.70260        1.78471       -2.94277
H          6.29402        2.53119       -2.65610
H          6.19892        0.91550       -3.36168
