171
-217.83450663
P         -1.53889        0.17779       -0.34013
P          1.69795       -0.68722        0.27159
C         -0.59552        0.84357       -1.72754
C          0.97395       -1.83613       -0.92339
C          0.21955       -0.01580       -2.45390
C          0.96704        0.49324       -3.53327
C          0.84223        1.83193       -3.86592
C          0.03335        2.67322       -3.13140
C         -0.67892        2.17408       -2.05921
C          1.04229       -3.15970       -0.55678
C          0.45986       -4.13312       -1.34556
C         -0.21402       -3.76656       -2.49056
C         -0.31607       -2.43780       -2.86579
C          0.30498       -1.44969       -2.07936
Cl         0.88847       -0.45111        3.42494
Cl        -2.07476       -1.40606        2.61799
C         -1.09850       -2.09025       -4.08363
C          1.87345       -0.38817       -4.31998
H         -0.03873        3.71736       -3.38884
H         -1.29494        2.83210       -1.47300
H          1.54891       -3.42818        0.35861
H          0.52292       -5.17056       -1.06046
H          1.38849        2.21332       -4.71161
H         -0.67918       -4.51779       -3.10625
C         -4.39282       -2.96342       -1.92219
C         -3.57272       -3.28799       -0.84874
C         -2.71640       -2.30745       -0.36598
C         -2.68076       -1.06378       -0.94422
C         -3.49310       -0.76225       -2.00908
C         -4.37330       -1.70816       -2.51940
H         -5.06918       -3.71125       -2.29107
H         -2.07682       -2.50376        0.47527
H         -3.43647        0.21725       -2.45126
C         -3.98448        3.53103        1.54587
C         -4.03117        3.34001        0.17127
C         -3.29767        2.28931       -0.36609
C         -2.51729        1.48953        0.43431
C         -2.49990        1.69126        1.79380
C         -3.23161        2.71375        2.37841
H         -4.55637        4.33393        1.97150
H         -3.32593        2.09492       -1.42335
H         -1.93005        1.03403        2.42319
C          5.67849       -2.41662        1.55796
C          4.81288       -1.96198        2.54510
C          3.58776       -1.44752        2.14388
C          3.25118       -1.40142        0.81560
C          4.11554       -1.86091       -0.14766
C          5.35513       -2.37887        0.20726
H          6.63527       -2.80920        1.84977
H          2.87766       -1.08038        2.86152
H          3.81029       -1.81427       -1.17936
C          2.73804        3.60614       -0.75158
C          1.73111        3.37708        0.17884
C          1.39243        2.05897        0.45449
C          2.03515        1.02192       -0.18131
C          3.03769        1.26884       -1.08661
C          3.41266        2.57227       -1.38878
H          3.02894        4.61560       -0.97316
H          0.64105        1.84370        1.19327
H          3.53973        0.43285       -1.54088
Pd        -0.28763       -0.60138        1.50978
C         -5.06638       -4.90309        0.34952
C         -3.65052       -4.68316       -0.21309
C         -2.63760       -4.83882        0.93898
C         -3.34240       -5.75076       -1.27856
H         -5.14971       -5.87950        0.82643
H         -5.30645       -4.14252        1.09227
H         -5.81747       -4.85074       -0.43781
H         -2.83601       -4.12247        1.73590
H         -2.69435       -5.83712        1.37232
H         -1.61729       -4.68905        0.58722
H         -3.38247       -6.75198       -0.84995
H         -4.05714       -5.71113       -2.09958
H         -2.34647       -5.60284       -1.69398
C         -6.12240       -2.53030       -4.17709
C         -5.32111       -1.31859       -3.66348
C         -4.51420       -0.74014       -4.84190
C         -6.30847       -0.25679       -3.14631
H         -6.76291       -2.93909       -3.39595
H         -6.76446       -2.24405       -5.01007
H         -5.45656       -3.31889       -4.52750
H         -5.17429       -0.45603       -5.66129
H         -3.95432        0.14652       -4.54756
H         -3.80641       -1.47471       -5.22388
H         -7.00409        0.04582       -3.92880
H         -6.88816       -0.64515       -2.30914
H         -5.78218        0.63260       -2.80226
C         -4.39023        5.73329       -0.48774
C         -4.86624        4.28443       -0.70485
C         -6.34959        4.15768       -0.31462
C         -4.72207        3.94931       -2.20269
H         -4.94854        6.42559       -1.11766
H         -4.52333        6.04528        0.54735
H         -3.33288        5.83125       -0.73351
H         -6.97197        4.80796       -0.92911
H         -6.69592        3.13297       -0.44871
H         -6.50853        4.43061        0.72802
H         -5.07844        2.94233       -2.41644
H         -5.30583        4.63975       -2.81132
H         -3.68299        4.02426       -2.52318
C         -3.70462        1.60353        4.57470
C         -3.18395        2.88817        3.90285
C         -4.05123        4.07295        4.36859
C         -1.73008        3.14547        4.33979
H         -3.70301        1.70228        5.65994
H         -4.72417        1.38863        4.25570
H         -3.08688        0.74365        4.31824
H         -5.09625        3.92469        4.09716
H         -4.00453        4.18376        5.45187
H         -3.70738        5.00792        3.92642
H         -1.34041        4.04405        3.86275
H         -1.66515        3.28170        5.41902
H         -1.08176        2.31233        4.07082
C          5.50323       -3.49872        4.40287
C          5.22689       -2.03271        4.02180
C          4.12124       -1.48855        4.94815
C          6.49862       -1.19111        4.23360
H          4.61794       -4.11228        4.23682
H          6.31580       -3.91629        3.80953
H          5.78040       -3.58314        5.45352
H          3.20065       -2.06150        4.83937
H          4.42624       -1.54952        5.99265
H          3.90412       -0.44345        4.72869
H          6.32511       -0.15385        3.94758
H          6.80697       -1.20629        5.27883
H          7.32759       -1.56858        3.63606
C          5.78830       -2.77997       -2.26844
C          6.36026       -2.87814       -0.83993
C          6.70574       -4.35133       -0.55479
C          7.63579       -2.01929       -0.76515
H          6.50866       -3.14671       -2.99952
H          4.88202       -3.37688       -2.36980
H          5.55334       -1.74794       -2.52810
H          7.40112       -4.73982       -1.29868
H          7.16734       -4.46858        0.42488
H          5.80745       -4.96806       -0.57769
H          8.36540       -2.33811       -1.50935
H          7.40400       -0.96994       -0.94706
H          8.10489       -2.09277        0.21535
C         -0.46259        4.48874        0.70997
C          1.05480        4.51465        0.95994
C          1.58907        5.89661        0.53729
C          1.33547        4.32136        2.46179
H         -0.68299        4.66412       -0.34218
H         -0.88901        3.52815        0.99039
H         -0.96925        5.25960        1.29034
H          1.09458        6.68949        1.09842
H          2.65941        5.97861        0.72534
H          1.40742        6.07970       -0.52168
H          2.40781        4.32539        2.65585
H          0.88289        5.11921        3.05019
H          0.93697        3.37292        2.81941
C          5.67568        3.63467       -1.54683
C          4.58186        2.88817       -2.33303
C          4.08606        3.76978       -3.49291
C          5.19992        1.60445       -2.92120
H          6.02288        3.03349       -0.70663
H          6.53325        3.85331       -2.18292
H          5.30447        4.57941       -1.15136
H          4.90069        4.00894       -4.17629
H          3.31127        3.25789       -4.06102
H          3.66981        4.70836       -3.12913
H          6.02157        1.84400       -3.59601
H          5.59698        0.96417       -2.13365
H          4.46227        1.03795       -3.48772
H         -1.30398       -1.02036       -4.13654
H          2.33170       -1.14767       -3.68438
H         -2.05744       -2.61059       -4.08268
H         -0.56257       -2.37879       -4.98887
H          2.67800        0.18487       -4.78288
H          1.32885       -0.89680       -5.11614
