58
-89.86661692
P          1.77144       -0.27453        0.85242
C          1.53424        1.51209        0.81185
C          1.34707        2.25971        1.95187
C          1.12552        3.62097        1.85193
C          1.09642        4.22730        0.61178
C          1.29514        3.47700       -0.52941
C          1.51686        2.11651       -0.42493
H          1.66864        1.51153       -1.30546
H          1.38268        1.78625        2.91842
C          3.44020       -0.71061        0.36203
C          4.39800        0.26806        0.22507
C          5.68137       -0.07543       -0.16008
C          5.99439       -1.39780       -0.40632
C          5.02913       -2.37595       -0.26889
C          3.74641       -2.02944        0.11745
H          2.97825       -2.78019        0.21822
H          4.13678        1.29642        0.41588
C          1.39313       -1.03469        2.49005
C         -0.06710       -1.41156        2.69579
C         -1.04578       -0.25810        2.49652
P         -1.60815       -0.13135        0.74475
C         -3.04266       -1.18793        0.53051
C         -2.89368       -2.55202        0.42937
C         -4.00889       -3.35441        0.26734
C         -5.26533       -2.78412        0.21002
C         -5.40999       -1.41466        0.31281
C         -4.29279       -0.61477        0.47377
H         -4.38817        0.45657        0.55174
H         -1.90650       -2.98425        0.46074
C         -1.97847        1.56088        0.26432
C         -2.17658        2.54879        1.20215
C         -2.44413        3.84157        0.78923
C         -2.51592        4.13477       -0.55853
C         -2.32860        3.13815       -1.49555
C         -2.06258        1.84731       -1.07892
H         -1.92161        1.05100       -1.79230
H         -2.12218        2.30979        2.25153
Pd         0.10761       -0.73105       -0.69867
Cl         1.76768       -0.98694       -2.18867
Cl        -1.52811       -1.27277       -2.14402
H         -1.95426       -0.38668        3.09072
H         -0.59988        0.68834        2.80180
H         -0.33612       -2.22731        2.01096
H         -0.18887       -1.83534        3.70496
H          2.03696       -1.91311        2.58069
H          1.72680       -0.33256        3.25544
H          0.97252        4.20796        2.74266
H          1.27062        3.94686       -1.49879
H          6.43356        0.68830       -0.27049
H          5.27193       -3.40707       -0.46650
H         -3.89561       -4.42260        0.18135
H         -6.38990       -0.96880        0.26546
H         -2.59260        4.61979        1.51971
H         -2.38840        3.36388       -2.54748
H          0.91694        5.28723        0.53451
H          6.99317       -1.66666       -0.70940
H         -6.13431       -3.40876        0.08188
H         -2.72070        5.14308       -0.87954
