64
-97.20682011
Cl        -1.58686       -1.58007       -2.49723
Cl         1.66795       -1.46266       -2.82914
P          1.95400       -0.61856        0.24077
C          2.20712       -2.28030        1.01842
C          3.72558       -0.16053       -0.08628
P         -1.27772       -0.13460        0.41204
C          1.27036        0.59997        1.41913
C         -0.15449        0.85575        1.46842
C         -0.38761        1.97556        2.36966
C          0.90388        2.43547        2.84805
C          1.92810        1.59501        2.25228
H         -1.35392        2.41966        2.61219
H          1.07515        3.26675        3.53545
Pd         0.17204       -1.02189       -1.22761
H          3.00529        1.68378        2.40799
C         -4.88548        2.39048       -0.76430
C         -4.51245        2.28104        0.56068
C         -3.42559        1.49882        0.90876
C         -2.71404        0.83830       -0.06715
C         -3.10267        0.92458       -1.38476
C         -4.18470        1.70790       -1.73844
H         -5.73107        3.00063       -1.03720
H         -5.06711        2.80250        1.32345
H         -3.13986        1.38599        1.94189
H         -2.57467        0.35272       -2.12855
H         -4.48479        1.77767       -2.77118
C         -2.72695       -3.84897        2.58754
C         -2.35382       -2.73094        3.30832
C         -1.91726       -1.59776        2.64540
C         -1.85514       -1.59494        1.27109
C         -2.23088       -2.70311        0.54912
C         -2.66783       -3.83719        1.20753
H         -3.06708       -4.73214        3.10335
H         -2.40163       -2.74033        4.38487
H         -1.61901       -0.71691        3.19153
H         -2.17916       -2.66914       -0.52720
H         -2.96138       -4.70793        0.64458
C          4.07749       -0.19275       -1.55689
H          3.86681        0.85112        0.31620
C          4.50687       -1.19859        0.74294
H          4.70958       -0.80010        1.74785
C          3.71990       -2.53027        0.86660
H          5.49255       -1.37076        0.28653
C          1.73653       -2.26291        2.45652
H          1.62455       -3.00257        0.43018
H          4.08387       -3.11856        1.72125
H          3.91007       -3.14943       -0.02215
H          2.28804       -1.51630        3.03144
H          0.67658       -2.01057        2.52425
H          1.88416       -3.23165        2.93969
H          3.92009       -1.19238       -1.96457
H          3.46188        0.49772       -2.13551
H          5.12423        0.07022       -1.72433
Fe         0.81942        2.46925        0.78291
C          2.12359        3.14636       -0.67834
C          1.38466        4.24843       -0.08749
C         -0.03217        3.99982       -0.29470
C         -0.16956        2.75435       -1.02572
C          1.15980        2.21681       -1.23552
H          3.21056        3.04649       -0.71343
H          1.81829        5.12001        0.40802
H         -0.85141        4.65170        0.01723
H         -1.10635        2.29941       -1.34666
H          1.39373        1.30811       -1.79327
