111
-148.55479966
P         -2.59292        1.95517        1.03612
P          0.16649        0.49852        0.47239
C         -1.45082        1.61685        2.40586
C         -0.23508        1.02060        2.14935
C         -3.59456        3.47723        1.36012
C         -3.51437        4.44007        0.19627
C         -1.79743        1.93727        3.70313
H         -2.75582        2.38755        3.90311
C         -0.92002        1.66511        4.73875
H         -1.19072        1.91511        5.75160
C          0.29969        1.07104        4.47700
H          0.98135        0.85658        5.28355
C          0.64153        0.74370        3.17735
H          1.58280        0.26539        2.95622
Pd        -1.32383        1.66113       -0.86507
Cl        -2.94081        2.42286       -2.21860
Cl         0.04026        1.29256       -2.61968
C         -5.00897        2.91082        1.60529
C         -3.93815        0.69377        0.88342
H         -3.92117        3.98315       -0.70712
H         -4.08462        5.35198        0.38887
H         -2.48077        4.72421       -0.01507
H         -5.75998        3.64490        1.27845
H         -5.17675        2.77615        2.68402
H         -3.79433        0.19080       -0.08297
C         -5.21999        1.55208        0.87894
C         -3.86798       -0.30714        2.01570
H         -3.18777        3.94323        2.26751
H         -6.04180        0.98760        1.34315
H         -5.53795        1.74061       -0.15711
H         -2.90494       -0.82167        2.02682
H         -3.98473        0.19240        2.97929
H         -4.65373       -1.06205        1.93477
C         -1.22058       -3.78493       -0.21154
C         -0.99937       -3.32532        1.11230
C         -0.56884       -2.02145        1.29111
C         -0.41767       -1.17612        0.22395
C         -0.71643       -1.58832       -1.04674
C         -1.16867       -2.87173       -1.29567
O         -1.45406       -5.16468       -0.45440
C         -1.17529       -4.23138        2.34085
H         -0.33105       -1.64929        2.27193
H         -0.57634       -0.88510       -1.84929
C         -1.57194       -3.24985       -2.72908
C          4.60209        0.60493       -0.53986
C          4.03762       -0.54162        0.07982
C          2.68137       -0.53140        0.35909
C          1.91659        0.58100        0.12203
C          2.48191        1.73426       -0.35388
C          3.83189        1.79273       -0.66063
O          5.89975        0.53682       -1.10879
C          4.83735       -1.79720        0.46644
H          2.19905       -1.41048        0.75294
H          1.84751        2.59096       -0.50690
C          4.40587        3.14441       -1.11772
C         -1.55299       -3.40136        3.58894
C         -2.30957       -5.24853        2.12025
C          0.14626       -4.96235        2.62290
C         -2.14403       -2.01986       -3.47219
C         -0.33523       -3.75201       -3.48926
C         -2.67276       -4.32576       -2.73182
C         -0.27388       -5.91302       -0.71883
H         -1.78372       -4.05394        4.43067
H         -0.73863       -2.75076        3.90413
H         -2.43067       -2.78589        3.39542
H         -2.47747       -5.84844        3.01433
H         -3.24010       -4.73784        1.87451
H         -2.07822       -5.93044        1.30574
H          0.05772       -5.60588        3.49782
H          0.44221       -5.58135        1.77945
H          0.94910       -4.24890        2.80793
H         -2.55236       -2.30790       -4.44049
H         -2.94422       -1.55614       -2.89590
H         -1.37911       -1.26800       -3.65983
H          0.43530       -2.98202       -3.52157
H          0.09373       -4.62863       -3.00963
H         -0.58900       -4.01907       -4.51476
H         -3.53720       -3.99093       -2.15940
H         -3.00256       -4.54650       -3.74668
H         -2.32131       -5.25507       -2.29087
H         -0.33333       -6.35275       -1.71421
H          0.60601       -5.27131       -0.65671
H         -0.18536       -6.72246        0.00567
C          5.88475        0.09798       -2.45714
C          6.35655       -1.55614        0.43989
C          4.47149       -2.21326        1.90880
C          4.48024       -2.94537       -0.49256
C          3.92486        3.44364       -2.54747
C          3.90759        4.26030       -0.17289
C          5.94358        3.17460       -1.07455
H          6.89892       -2.42579        0.81019
H          6.70691       -1.35593       -0.56979
H          6.62063       -0.70063        1.06056
H          5.07907       -3.05678        2.23561
H          4.64069       -1.38892        2.60104
H          3.42847       -2.51432        1.99199
H          3.41310       -3.16361       -0.45921
H          4.73482       -2.69338       -1.52020
H          5.01710       -3.85572       -0.22707
H          4.29244        4.41123       -2.88800
H          4.27469        2.68681       -3.24674
H          2.83655        3.46119       -2.59654
H          4.36110        5.21742       -0.42930
H          2.82803        4.38817       -0.23052
H          4.16588        4.03223        0.86083
H          6.37223        2.48241       -1.79527
H          6.30582        2.89435       -0.08607
H          6.32375        4.16902       -1.30727
H          6.90545        0.07529       -2.83949
H          5.45390       -0.89978       -2.52108
H          5.28749        0.77619       -3.06426
