111
-148.55424620
P         -2.46481        2.18337        0.51157
P          0.10917        0.33563        0.47168
C         -1.39640        2.10413        1.96767
C         -0.28962        1.28358        1.95498
C         -2.73177        3.92424       -0.04937
C         -1.84321        4.26304       -1.22724
C         -1.68687        2.85885        3.08584
H         -2.54452        3.51189        3.07894
C         -0.87308        2.77563        4.20225
H         -1.09953        3.36208        5.07770
C          0.22799        1.94119        4.19472
H          0.86126        1.87444        5.06407
C          0.52156        1.19521        3.06713
H          1.38107        0.54514        3.04767
Pd        -1.50175        0.86843       -1.11679
Cl        -3.29887        1.24816       -2.40166
Cl        -0.41637       -0.42562       -2.59168
C         -4.23974        3.95262       -0.35645
C         -4.21885        1.67601        0.83358
H         -0.78653        4.14522       -0.97464
H         -2.05363        3.60541       -2.07274
H         -1.99984        5.29083       -1.56291
H         -4.38880        3.68345       -1.41138
H         -4.63317        4.97551       -0.25358
H         -4.44187        0.90481        0.08438
C         -5.02410        2.95942        0.54626
C         -4.40739        1.13787        2.23782
H         -2.50217        4.56619        0.81110
H         -5.26267        3.44783        1.50084
H         -5.99606        2.70695        0.09640
H         -3.71131        0.32584        2.45485
H         -4.23070        1.91780        2.97971
H         -5.42338        0.76642        2.39050
C         -0.90766       -4.07635        0.95480
C         -1.90383       -3.08543        1.15288
C         -1.53256       -1.75459        1.04469
C         -0.26354       -1.40539        0.65924
C          0.65609       -2.36316        0.31824
C          0.35512       -3.71041        0.42233
O         -1.14707       -5.42225        1.33854
C         -3.36831       -3.42392        1.47195
H         -2.23737       -0.96715        1.24824
H          1.61758       -2.04344       -0.04119
C          1.39172       -4.75261       -0.02454
C          4.35460        1.22847       -0.94279
C          3.24197        1.64693       -1.71933
C          1.97081        1.38116       -1.23847
C          1.78100        0.65320       -0.09277
C          2.85262        0.13855        0.59131
C          4.15221        0.37333        0.17253
O          5.65059        1.72699       -1.23329
C          3.35925        2.35011       -3.08245
H          1.10594        1.74158       -1.76868
H          2.66573       -0.45539        1.46940
C          5.29379       -0.31412        0.94154
C         -3.73849       -4.84685        1.01483
C         -3.60085       -3.28204        2.98350
C         -4.31030       -2.45906        0.71758
C          2.25691       -4.19650       -1.17787
C          2.30611       -5.10358        1.15839
C          0.70334       -6.02459       -0.55266
C         -0.81221       -5.69123        2.69373
H         -3.17920       -5.59918        1.56478
H         -4.79848       -5.04569        1.17101
H         -3.52075       -4.97781       -0.04460
H         -4.63460       -3.50863        3.24312
H         -2.95577       -3.95731        3.54267
H         -3.38446       -2.26672        3.31470
H         -4.09360       -2.46477       -0.35034
H         -5.35206       -2.74951        0.85097
H         -4.21414       -1.43709        1.07539
H          2.90835       -4.97096       -1.58200
H          1.62925       -3.82906       -1.98936
H          2.89681       -3.38124       -0.84576
H          3.07519       -5.81534        0.85942
H          2.80143       -4.21195        1.54148
H          1.73908       -5.54619        1.97442
H          1.43464       -6.73685       -0.93386
H          0.13707       -6.52204        0.23123
H          0.01379       -5.78045       -1.36006
H         -0.20345       -6.59424        2.74366
H         -0.25717       -4.85473        3.12013
H         -1.71947       -5.85222        3.27529
C          5.92860        2.95057       -0.57302
C          4.77919        2.26054       -3.66781
C          2.41094        1.66570       -4.09261
C          2.95659        3.82650       -2.93377
C          6.62508       -0.27803        0.17081
C          5.47227        0.36993        2.30688
C          4.94513       -1.80233        1.16343
H          5.10967        1.22359       -3.71669
H          4.81665        2.67773       -4.67384
H          5.49260        2.80926       -3.05757
H          2.62120        0.59840       -4.15427
H          1.36548        1.78486       -3.81361
H          2.53106        2.09073       -5.08869
H          1.93712        3.91683       -2.55989
H          3.61300        4.34472       -2.23721
H          3.00916        4.34264       -3.89202
H          7.39339       -0.85382        0.68630
H          6.50160       -0.69334       -0.82878
H          6.99254        0.74000        0.06580
H          5.73535        1.41944        2.18916
H          4.55318        0.32118        2.89006
H          6.26167       -0.11151        2.88355
H          5.76597       -2.32437        1.65453
H          4.75614       -2.29721        0.21170
H          4.06352       -1.92393        1.79020
H          6.92781        3.28872       -0.84828
H          5.19992        3.70592       -0.86294
H          5.88005        2.81227        0.50589
