171
-217.83707418
P         -1.52562        0.15207       -0.07988
P          1.77304       -0.52306       -0.10453
C         -0.85578        1.36683       -1.23011
C          0.97846       -1.24739       -1.55748
C         -0.04933        0.91874       -2.26911
C          0.51172        1.85810       -3.15551
C          0.19629        3.19807       -3.00124
C         -0.62658        3.62200       -1.97868
C         -1.14444        2.70220       -1.08794
C          1.13731       -2.60793       -1.68075
C          0.51644       -3.29320       -2.70705
C         -0.27916       -2.60638       -3.59835
C         -0.46835       -1.23977       -3.48148
C          0.17909       -0.53839       -2.44683
Cl         1.31840       -1.51606        3.02552
Cl        -1.70044       -2.22190        2.24222
C         -1.36818       -0.55086       -4.44719
C          1.41441        1.42810       -4.25861
H         -0.86195        4.66847       -1.87467
H         -1.77297        3.02933       -0.27745
H          1.74346       -3.13607       -0.95943
H          0.64625       -4.35878       -2.80304
H          0.59872        3.91360       -3.69786
H         -0.77534       -3.13443       -4.39520
C         -4.34948       -2.52667       -2.39425
C         -3.45206       -3.11429       -1.51173
C         -2.60943       -2.27875       -0.79155
C         -2.65255       -0.91965       -0.97173
C         -3.52900       -0.35694       -1.86715
C         -4.40470       -1.15320       -2.59615
H         -5.03391       -3.15823       -2.92965
H         -1.92033       -2.68240       -0.07264
H         -3.50942        0.70939       -2.00936
C         -3.99007        2.27959        3.10969
C         -2.93585        1.48011        3.52884
C         -2.17553        0.84855        2.55468
C         -2.47018        0.99155        1.21880
C         -3.53453        1.76894        0.83051
C         -4.30862        2.44132        1.76812
H         -4.58738        2.78057        3.84912
H         -1.35331        0.22537        2.84974
H         -3.75970        1.85085       -0.21768
C          2.46793        3.94971        0.08295
C          3.19183        3.18305       -0.82000
C          2.93014        1.81950       -0.86537
C          1.99392        1.25954       -0.03117
C          1.30129        2.03145        0.87312
C          1.51824        3.40287        0.93649
H          2.66272        5.00502        0.13443
H          3.46495        1.17855       -1.54430
H          0.58641        1.55996        1.52290
C          5.90369       -2.37102        0.16274
C          5.16691       -2.23628        1.33321
C          3.89856       -1.67964        1.24099
C          3.39811       -1.27642        0.02983
C          4.13984       -1.41657       -1.11743
C          5.41190       -1.97220       -1.07477
H          6.88461       -2.80336        0.22442
H          3.27626       -1.57315        2.10999
H          3.71626       -1.10080       -2.05668
Pd        -0.02074       -1.09346        1.26543
C         -3.14026       -5.29445       -2.71107
C         -3.41983       -4.63958       -1.34577
C         -4.77863       -5.11914       -0.80509
C         -2.31704       -5.07944       -0.36194
H         -3.91823       -5.05305       -3.43428
H         -2.18909       -4.94904       -3.11497
H         -3.09409       -6.37958       -2.62106
H         -4.78160       -6.19917       -0.65922
H         -4.99833       -4.64800        0.15278
H         -5.58704       -4.87255       -1.49245
H         -2.29304       -6.16484       -0.26726
H         -1.33441       -4.75575       -0.70459
H         -2.48922       -4.66646        0.63173
C         -6.83843       -0.66931       -2.87496
C         -5.45581       -0.54912       -3.53919
C         -5.46256       -1.30194       -4.88416
C         -5.17044        0.93901       -3.82513
H         -6.85442       -0.14199       -1.92117
H         -7.61615       -0.24497       -3.50969
H         -7.09062       -1.71208       -2.68404
H         -4.48082       -1.26644       -5.35461
H         -5.73790       -2.34789       -4.75783
H         -6.17947       -0.85623       -5.57360
H         -5.89166        1.34135       -4.53639
H         -5.24102        1.53730       -2.91740
H         -4.17562        1.07203       -4.24959
C         -2.46488        2.61789        5.72543
C         -2.67987        1.26230        5.02790
C         -1.43405        0.38630        5.27244
C         -3.90070        0.55290        5.64135
H         -1.59994        3.13361        5.31098
H         -3.33122        3.26781        5.60983
H         -2.29221        2.48198        6.79293
H         -0.54089        0.84338        4.84755
H         -1.25938        0.25174        6.33964
H         -1.55630       -0.60367        4.83341
H         -4.07581       -0.40337        5.14870
H         -3.74987        0.36339        6.70391
H         -4.80222        1.15494        5.53304
C         -5.69778        3.34201       -0.16519
C         -5.47588        3.35083        1.36045
C         -5.16566        4.79251        1.80217
C         -6.76849        2.86242        2.04018
H         -5.92417        2.33708       -0.52107
H         -6.53449        3.98484       -0.43827
H         -4.81704        3.70706       -0.69337
H         -5.96893        5.47070        1.51478
H         -5.04427        4.85661        2.88298
H         -4.24327        5.14569        1.34103
H         -6.98277        1.83082        1.76142
H         -6.68853        2.90633        3.12559
H         -7.61975        3.47564        1.74493
C          4.99552        2.80717       -2.57455
C          4.26041        3.84357       -1.70260
C          5.29946        4.54267       -0.80573
C          3.59300        4.87814       -2.62551
H          5.49305        2.06120       -1.95531
H          4.30585        2.29585       -3.24512
H          5.75669        3.28760       -3.18912
H          5.76000        3.82878       -0.12302
H          6.08978        4.99516       -1.40447
H          4.84311        5.33090       -0.20831
H          3.07440        5.64484       -2.05100
H          4.33191        5.37353       -3.25510
H          2.86469        4.39804       -3.27720
C          1.81840        4.83271        2.96739
C          0.79547        4.31025        1.94314
C         -0.31227        3.55510        2.69692
C          0.14482        5.49780        1.20822
H          2.29375        4.00430        3.49240
H          2.60125        5.41333        2.48045
H          1.33816        5.47157        3.70837
H         -0.83627        4.22235        3.38056
H         -1.04818        3.15263        2.00303
H          0.09865        2.73404        3.28323
H          0.88580        6.10361        0.68880
H         -0.57780        5.14634        0.47339
H         -0.38080        6.14670        1.90862
C          4.78020       -2.46919        3.83842
C          5.75879       -2.70430        2.67058
C          7.05374       -1.92150        2.95518
C          6.06776       -4.21057        2.59075
H          3.85128       -3.01917        3.68935
H          5.21379       -2.80413        4.78050
H          4.54094       -1.41121        3.94316
H          7.80072       -2.09611        2.18173
H          6.85503       -0.85057        2.99285
H          7.48719       -2.21836        3.91007
H          6.79829       -4.42489        1.81161
H          6.47056       -4.57674        3.53493
H          5.16382       -4.77678        2.36701
C          5.41947       -3.05367       -3.33444
C          6.20433       -2.13478       -2.37950
C          7.59203       -2.75639       -2.13125
C          6.39785       -0.75386       -3.03309
H          5.96329       -3.20364       -4.26692
H          5.25332       -4.02977       -2.87907
H          4.44616       -2.63037       -3.58048
H          8.14158       -2.86108       -3.06669
H          8.18839       -2.13143       -1.46672
H          7.50427       -3.74831       -1.68835
H          6.92811       -0.08079       -2.35970
H          6.97606       -0.83511       -3.95333
H          5.44115       -0.29597       -3.28156
H         -0.90255       -0.47772       -5.43101
H          0.85190        1.24899       -5.17570
H         -1.61854        0.45722       -4.11500
H         -2.30277       -1.10128       -4.55897
H          1.94217        0.50870       -3.99994
H          2.16541        2.19000       -4.47174
