59
-75.79920011
Cl         1.51711        0.76056        2.31678
P          1.54967        0.08641       -0.80209
P         -1.62653       -0.22301       -0.79915
C          0.55474        0.47077       -2.31068
H          0.25274        1.51963       -2.26914
H          1.19442        0.35018       -3.19043
C         -0.64471       -0.43326       -2.34978
H         -0.33193       -1.47901       -2.40995
H         -1.29276       -0.23402       -3.20896
C          2.49654       -1.47839       -1.10732
H          2.29692       -1.71341       -2.16142
C          2.96254        1.25910       -0.57408
H          3.07450        1.39985        0.50775
C         -2.71515       -1.67082       -0.41701
H         -2.63771       -1.83098        0.66554
C         -2.90935        1.10558       -0.96952
H         -2.91444        1.38900       -2.02891
C          3.97014       -1.06012       -0.94153
H          4.32059       -1.34054        0.05874
H          4.60752       -1.62346       -1.63966
C          4.15931        0.46980       -1.13294
H          4.26389        0.69653       -2.20300
H          5.09567        0.81072       -0.66529
C         -4.11637       -1.15204       -0.78031
H         -4.32921       -1.40870       -1.82735
H         -4.88374       -1.67153       -0.18611
C         -4.21874        0.38538       -0.59155
H         -4.44883        0.60502        0.46018
H         -5.06171        0.79617       -1.16769
C          2.03036       -2.63333       -0.21959
H          2.47672       -3.56970       -0.58277
H          0.94795       -2.75780       -0.35752
C          2.71403        2.60123       -1.25090
H          2.58333        2.43743       -2.32857
H          1.75613        3.00861       -0.90063
C         -2.29762       -2.93234       -1.16284
H         -2.36287       -2.74432       -2.24254
H         -1.23626       -3.13285       -0.96572
C         -2.62704        2.32623       -0.09808
H         -3.50936        2.98132       -0.11040
H         -2.52756        1.99886        0.94497
C          2.33637       -2.47054        1.26384
H          1.84318       -3.23607        1.86750
H          2.00679       -1.50147        1.63647
H          3.40484       -2.54519        1.47092
C          3.82808        3.60704       -1.00210
H          4.78378        3.24390       -1.38423
H          3.95827        3.79311        0.06566
H          3.62754        4.56800       -1.48138
C         -3.13337       -4.14737       -0.78866
H         -3.06613       -4.35680        0.28062
H         -2.81199       -5.04579       -1.32061
H         -4.18846       -3.99027       -1.01969
C         -1.39667        3.11186       -0.52100
H         -1.25086        4.00479        0.09121
H         -0.49286        2.51012       -0.43032
H         -1.47035        3.43416       -1.56131
Cl        -1.69790        0.06231        2.39822
Pd        -0.06433        0.10764        0.86350
