111
-148.55711902
P         -2.59099        1.91619        1.05163
P          0.17057        0.49886        0.41852
C         -1.43639        1.55633        2.40107
C         -0.21280        0.99159        2.11245
C         -3.49783        3.50605        1.32538
C         -2.95719        4.61282        0.44660
C         -1.77384        1.83640        3.70977
H         -2.73949        2.25965        3.93259
C         -0.87760        1.55653        4.72705
H         -1.14024        1.77461        5.74933
C          0.35095        0.99589        4.43457
H          1.04737        0.77526        5.22673
C          0.68230        0.70796        3.12298
H          1.62943        0.25304        2.87933
Pd        -1.37300        1.65848       -0.88455
Cl        -3.04328        2.50251       -2.10967
Cl         0.04110        1.23478       -2.58386
C         -4.96055        3.11573        1.04294
C         -4.01369        0.73765        0.94069
H         -1.89646        4.79034        0.63927
H         -3.05940        4.35541       -0.60841
H         -3.49388        5.55032        0.60967
H         -5.18218        3.32167       -0.01339
H         -5.64689        3.75474        1.61924
H         -4.08591        0.44861       -0.11651
C         -5.21806        1.61076        1.34063
C         -3.79878       -0.47743        1.81648
H         -3.36957        3.75984        2.38523
H         -5.40964        1.47793        2.41433
H         -6.12977        1.26056        0.83316
H         -2.91335       -1.03546        1.50658
H         -3.65381       -0.18391        2.85778
H         -4.65468       -1.15516        1.77736
C         -1.25418       -3.78488       -0.20742
C         -0.98263       -3.31784        1.10412
C         -0.53216       -2.01777        1.25799
C         -0.40954       -1.18046        0.18077
C         -0.75399       -1.60007       -1.07572
C         -1.22709       -2.88051       -1.29969
O         -1.51685       -5.16284       -0.42964
C         -1.13960       -4.20754        2.34689
H         -0.26533       -1.63953        2.22891
H         -0.63622       -0.90439       -1.88762
C         -1.68609       -3.26376       -2.71496
C          4.62005        0.60821       -0.53912
C          4.05298       -0.52569        0.10109
C          2.69165       -0.51926        0.35440
C          1.92301        0.58072        0.07540
C          2.48841        1.72508       -0.42139
C          3.84296        1.78572       -0.70680
O          5.92957        0.53594       -1.07966
C          4.85638       -1.76091        0.54223
H          2.20938       -1.39074        0.76480
H          1.85064        2.57273       -0.60693
C          4.41508        3.12848       -1.19184
C         -2.30434       -5.19871        2.17207
C          0.17226       -4.96758        2.59471
C         -1.45716       -3.35544        3.59721
C         -2.26816       -2.03174       -3.44687
C         -0.48405       -3.78828       -3.51448
C         -2.80057       -4.32461       -2.67033
C         -0.35801       -5.93217       -0.72571
H         -2.11596       -5.89188        1.35590
H         -2.45687       -5.78772        3.07610
H         -3.23008       -4.66766        1.95274
H          0.09725       -5.59758        3.48068
H          0.42434       -5.60453        1.75040
H          0.99812       -4.27212        2.74339
H         -1.68674       -3.99295        4.45071
H         -0.61348       -2.72973        3.88473
H         -2.31844       -2.71194        3.42094
H         -3.03992       -1.55213       -2.84529
H         -1.50020       -1.29248       -3.66902
H         -2.71615       -2.32159       -4.39692
H         -0.77761       -4.05931       -4.52826
H          0.29502       -3.02907       -3.58006
H         -0.05011       -4.66708       -3.04335
H         -3.16921       -4.54814       -3.67114
H         -2.44608       -5.25544       -2.23507
H         -3.63955       -3.97393       -2.07020
H         -0.26325       -6.74148       -0.00183
H         -0.45341       -6.37283       -1.71785
H          0.53427       -5.30574       -0.69036
C          5.94679        0.05591       -2.41384
C          6.37300       -1.50286        0.54555
C          4.46014       -2.14052        1.98678
C          4.53535       -2.93986       -0.39167
C          3.96345        3.37986       -2.64021
C          3.88646        4.26813       -0.29287
C          5.95114        3.17413       -1.11566
H          6.74538       -1.32482       -0.46040
H          6.61250       -0.62852        1.14975
H          6.91584       -2.35621        0.95139
H          5.07073       -2.96552        2.35291
H          4.60066       -1.29432        2.65877
H          3.41960       -2.45417        2.05298
H          3.46963       -3.16703       -0.38029
H          4.81551       -2.71589       -1.41912
H          5.07273       -3.83690       -0.08511
H          4.33054        4.33988       -3.00204
H          4.33485        2.60528       -3.30820
H          2.87636        3.38625       -2.71340
H          4.33899        5.22071       -0.56730
H          2.80771        4.38586       -0.37976
H          4.12185        4.07319        0.75303
H          6.32797        4.16413       -1.37153
H          6.40168        2.46343       -1.80432
H          6.29352        2.92870       -0.11098
H          5.36107        0.71262       -3.05485
H          6.97599        0.02605       -2.77213
H          5.52124       -0.94522       -2.45680
