111
-148.55213967
P         -2.09770        2.26119        1.36303
P          0.13916        0.14680        0.51897
C         -1.08515        1.45314        2.62890
C         -0.14325        0.51691        2.26184
C         -2.17302        4.08555        1.64906
C         -1.76730        4.83370        0.39822
C         -1.27418        1.75430        3.96250
H         -1.99936        2.50138        4.24139
C         -0.53301        1.09759        4.92966
H         -0.68161        1.33096        5.97134
C          0.38885        0.13685        4.56138
H          0.95821       -0.38320        5.31410
C          0.58171       -0.15638        3.22327
H          1.28689       -0.91522        2.92138
Pd        -1.45769        1.35343       -0.66106
Cl        -3.10737        2.55093       -1.60308
Cl        -0.82709        0.35777       -2.57273
C         -3.63905        4.31497        2.07155
C         -3.89962        1.83531        1.47033
H         -2.44205        4.59629       -0.42612
H         -1.79813        5.91548        0.54929
H         -0.75625        4.56350        0.08351
H         -3.96364        5.31277        1.74200
H         -3.71525        4.32683        3.16877
H         -4.14661        1.29844        0.54431
C         -4.58226        3.21795        1.50281
C         -4.20337        0.96859        2.67384
H         -1.48087        4.30779        2.47272
H         -5.50802        3.15733        2.09331
H         -4.89627        3.50139        0.48744
H         -3.59512        0.06141        2.67433
H         -3.99344        1.50582        3.59979
H         -5.25445        0.67146        2.69875
C         -1.28238       -4.09604       -0.31206
C         -2.21007       -3.07739        0.03388
C         -1.71781       -1.81497        0.32121
C         -0.38558       -1.52694        0.17833
C          0.49574       -2.47230       -0.27613
C          0.07409       -3.75937       -0.56614
O         -1.69503       -5.45316       -0.33366
C         -3.73507       -3.27680        0.06310
H         -2.37928       -1.03343        0.65631
H          1.52729       -2.19255       -0.40222
C          1.09900       -4.73956       -1.16183
C          4.41213        0.95118       -0.88628
C          4.13637        0.89566        0.50370
C          2.82786        0.68790        0.90740
C          1.82873        0.46385       -0.00435
C          2.11269        0.42493       -1.34402
C          3.39568        0.62922       -1.82003
O          5.69462        1.35645       -1.34340
C          5.22835        1.07513        1.57102
H          2.57089        0.71075        1.95036
H          1.29726        0.25227       -2.02292
C          3.65550        0.53542       -3.33212
C         -4.41738       -2.10236       -0.67457
C         -4.16761       -4.56844       -0.65203
C         -4.22300       -3.30625        1.52050
C          0.42495       -5.95181       -1.82786
C          1.92292       -4.02458       -2.25585
C          2.04995       -5.22160       -0.05436
C         -1.58955       -6.08196        0.93253
H         -4.01942       -1.99892       -1.68365
H         -5.49242       -2.26265       -0.75118
H         -4.26800       -1.15696       -0.15642
H         -3.80334       -5.44946       -0.12891
H         -5.25341       -4.64283       -0.70679
H         -3.77272       -4.59569       -1.66704
H         -3.78327       -4.13857        2.06651
H         -3.95229       -2.38795        2.04022
H         -5.30675       -3.41053        1.56591
H          1.15846       -6.58483       -2.32664
H         -0.09473       -6.56521       -1.09550
H         -0.30425       -5.62633       -2.56896
H          2.58611       -4.72474       -2.76323
H          1.26552       -3.58175       -3.00356
H          2.54607       -3.23464       -1.84013
H          1.50848       -5.75043        0.72742
H          2.80434       -5.89764       -0.45602
H          2.56500       -4.38035        0.40864
H         -1.95977       -7.10463        0.85779
H         -0.55023       -6.09900        1.25581
H         -2.17753       -5.53866        1.67034
C          5.82837        2.75911       -1.53665
C          5.36317        2.56573        1.91698
C          4.86549        0.30267        2.86023
C          6.57805        0.51835        1.08236
C          2.66310       -0.44320       -4.00080
C          3.47008        1.92213       -3.96653
C          5.07089        0.00210       -3.61794
H          6.12369        2.72178        2.68166
H          5.64072        3.15050        1.04349
H          4.41976        2.96042        2.29354
H          4.00690        0.74184        3.36612
H          4.63752       -0.73928        2.63685
H          5.69470        0.31935        3.56719
H          6.94501        1.06686        0.21858
H          7.33600        0.58741        1.86225
H          6.48012       -0.52832        0.79618
H          2.67810       -1.41075       -3.50151
H          1.64336       -0.06187       -3.98093
H          2.92329       -0.60336       -5.04678
H          3.63821        1.88487       -5.04250
H          2.45882        2.29061       -3.79553
H          4.16174        2.64621       -3.54337
H          5.83393        0.68093       -3.24552
H          5.23417       -0.12197       -4.68818
H          5.22050       -0.96439       -3.13772
H          4.89580        3.26829       -1.29034
H          6.62971        3.14079       -0.90424
H          6.09061        2.96169       -2.57492
