59
-75.79867807
Cl         1.60303        0.91338        2.29215
P          1.63519        0.06758       -0.82594
P         -1.52825       -0.12854       -0.82884
C          0.67685        0.26003       -2.38804
H          0.38137        1.30722       -2.49171
H          1.32408        0.00961       -3.23441
C         -0.52756       -0.63235       -2.29902
H         -0.22498       -1.67481       -2.16690
H         -1.15574       -0.58146       -3.19415
C          2.53881       -1.54881       -0.85949
H          2.35049       -1.99109       -1.84520
C          3.07291        1.22172       -0.67486
H          3.16030        1.46126        0.39202
C         -2.71615       -1.44202       -0.27699
H         -2.65118       -1.47397        0.81714
C         -2.73885        1.18040       -1.34255
H         -2.74959        1.11205       -2.43897
C          4.01956       -1.14434       -0.71916
H          4.32794       -1.29208        0.32475
H          4.65970       -1.81422       -1.31270
C          4.25434        0.34032       -1.11470
H          4.36924        0.41954       -2.20475
H          5.19587        0.71934       -0.68819
C         -4.08665       -0.89146       -0.70983
H         -4.34178       -1.30899       -1.69340
H         -4.87461       -1.24255       -0.02639
C         -4.07819        0.65938       -0.79346
H         -4.24812        1.07275        0.20824
H         -4.91365        1.02630       -1.40896
C          2.03036       -2.47036        0.24227
H          0.93821       -2.56013        0.16162
H          2.20674       -1.98903        1.21383
C          2.88654        2.50213       -1.47795
H          3.84178        3.04365       -1.52263
H          2.65481        2.23928       -2.51821
C         -2.37288       -2.80958       -0.85455
H         -2.42013       -2.75415       -1.95006
H         -1.32649       -3.04741       -0.61968
C         -2.35525        2.60159       -0.92676
H         -1.36627        2.83025       -1.34514
H         -3.04097        3.30996       -1.41230
C          2.67086       -3.84986        0.20986
H          2.28808       -4.49765        1.00180
H          3.75366       -3.78803        0.33207
H          2.48265       -4.34869       -0.74276
C          1.80438        3.39988       -0.89693
H          2.06521        3.72957        0.11059
H          0.85379        2.87172       -0.81774
H          1.63861        4.29274       -1.50391
C         -3.28355       -3.91562       -0.34257
H         -4.32600       -3.72467       -0.60353
H         -3.23372       -3.99390        0.74514
H         -3.01597       -4.89110       -0.75519
C         -2.34769        2.86147        0.57258
H         -1.71581        2.14945        1.10078
H         -1.97517        3.86078        0.80997
H         -3.34642        2.78445        1.00433
Cl        -1.58314        0.03617        2.37917
Pd         0.04763        0.19922        0.84706
