111
-148.55238570
P         -1.68076        2.70445        0.99484
P         -0.41556       -0.14484        0.49815
C         -1.22892        1.66008        2.40921
C         -0.74426        0.38829        2.18887
C         -0.57875        4.18669        0.91820
C          0.28178        4.14658       -0.32699
C         -1.33458        2.13999        3.69908
H         -1.67452        3.14904        3.86502
C         -0.97997        1.33267        4.76619
H         -1.06629        1.70588        5.77362
C         -0.50934        0.05290        4.54209
H         -0.22775       -0.57302        5.37282
C         -0.38075       -0.41733        3.24750
H          0.01893       -1.39991        3.05175
Pd        -1.70859        1.26140       -0.81172
Cl        -3.26433        2.50163       -1.83193
Cl        -1.39070       -0.26366       -2.43866
C         -1.56397        5.37162        0.97133
C         -3.32426        3.53541        1.19610
H         -0.34039        4.11481       -1.22383
H          0.92373        5.02781       -0.39797
H          0.92134        3.26142       -0.34331
H         -1.72924        5.73708       -0.05143
H         -1.11733        6.21701        1.51613
H         -3.77892        3.54510        0.19718
C         -2.92887        4.96740        1.59836
C         -4.22939        2.81690        2.17391
H          0.03593        4.15403        1.82701
H         -2.86509        5.02535        2.69355
H         -3.71962        5.67747        1.31152
H         -4.39634        1.78117        1.86941
H         -3.79469        2.79744        3.17350
H         -5.20197        3.30826        2.25056
C         -0.62476       -4.65516       -0.08606
C         -1.78365       -3.86601       -0.30249
C         -1.70263       -2.50203       -0.07358
C         -0.51411       -1.91568        0.27257
C          0.63304       -2.65824        0.37928
C          0.62077       -4.02708        0.16953
O         -0.71666       -6.07253       -0.09613
C         -3.11458       -4.46664       -0.78204
H         -2.56880       -1.87148       -0.17796
H          1.54810       -2.14636        0.62366
C          1.94499       -4.80480        0.22841
C          3.71986        1.31879       -0.72798
C          3.22758        1.61444        0.56936
C          1.97694        1.13545        0.92070
C          1.20128        0.45938        0.01586
C          1.62214        0.28055       -1.27477
C          2.86349        0.72743       -1.69141
O          5.07824        1.58028       -1.04945
C          4.03946        2.41497        1.59934
H          1.59294        1.28007        1.91480
H          0.94932       -0.20382       -1.96006
C          3.26565        0.54652       -3.16302
C         -3.90732       -3.43380       -1.61590
C         -2.87584       -5.68617       -1.69102
C         -3.96037       -4.87072        0.43459
C          2.19342       -5.27843        1.66821
C          1.92195       -6.00941       -0.72996
C          3.12536       -3.90580       -0.20738
C         -1.01313       -6.64296        1.17210
H         -4.78304       -3.89435       -2.07245
H         -4.26421       -2.60810       -1.00232
H         -3.28914       -3.02445       -2.41455
H         -3.81561       -6.07022       -2.08696
H         -2.23745       -5.41782       -2.53211
H         -2.39187       -6.49554       -1.15003
H         -4.91675       -5.29003        0.12319
H         -3.44868       -5.61464        1.04055
H         -4.16048       -4.00732        1.06865
H          2.24186       -4.42967        2.35004
H          1.39527       -5.93272        2.01073
H          3.13279       -5.82572        1.74267
H          2.88331       -6.52241       -0.73828
H          1.16535       -6.73367       -0.43833
H          1.70073       -5.68622       -1.74663
H          4.04338       -4.48673       -0.29308
H          2.92681       -3.44933       -1.17663
H          3.31649       -3.11164        0.51287
H         -1.11511       -5.86185        1.92653
H         -1.94083       -7.21147        1.10927
H         -0.21438       -7.32575        1.46122
C          5.95450        0.49415       -0.77604
C          4.88659        1.44790        2.43967
C          4.94449        3.45078        0.90778
C          3.10166        3.20005        2.54422
C          3.93254       -0.82585       -3.34106
C          2.02162        0.61431       -4.07857
C          4.21959        1.66483       -3.62016
H          4.25112        0.73007        2.95790
H          5.57892        0.88727        1.81601
H          5.46764        1.98663        3.18775
H          5.46906        4.06402        1.64006
H          5.69423        2.96946        0.28476
H          4.35531        4.11093        0.27201
H          3.67473        3.85142        3.20366
H          2.41498        3.82455        1.97438
H          2.51721        2.53663        3.17984
H          4.82148       -0.91568       -2.72106
H          3.24852       -1.62535       -3.05761
H          4.22689       -0.98559       -4.37798
H          1.44812        1.52083       -3.88694
H          2.31330        0.61810       -5.12848
H          1.36538       -0.24233       -3.93306
H          3.77015        2.64346       -3.45486
H          4.45187        1.57270       -4.68082
H          5.15907        1.63301       -3.07412
H          6.72337        0.81332       -0.07260
H          5.40047       -0.34495       -0.35314
H          6.44472        0.17847       -1.69682
