111
-148.55134918
P         -2.78111        1.77952       -0.31136
P          0.09441        0.60054        0.23693
C         -1.94491        2.14812        1.25684
C         -0.66081        1.69033        1.45765
C         -3.86642        3.18331       -0.84077
C         -3.18973        4.10121       -1.83493
C         -2.57256        2.88213        2.24354
H         -3.58427        3.22133        2.09602
C         -1.90596        3.16303        3.42386
H         -2.39602        3.73630        4.19383
C         -0.61566        2.70854        3.61800
H         -0.09834        2.92477        4.53821
C          0.00726        1.96378        2.63299
H          1.00564        1.58076        2.77596
Pd        -1.14760        0.90965       -1.70523
Cl        -2.37625        1.49803       -3.47701
Cl         0.58202       -0.08391       -2.74535
C         -5.11367        2.45003       -1.36494
C         -4.03423        0.41619       -0.22705
H         -2.26750        4.51870       -1.42434
H         -2.92782        3.56539       -2.74692
H         -3.84114        4.93068       -2.11941
H         -4.96939        2.22711       -2.43131
H         -5.99584        3.10669       -1.31498
H         -3.75832       -0.29848       -1.01408
C         -5.35609        1.12587       -0.58419
C         -4.02982       -0.25175        1.13085
H         -4.11924        3.73793        0.07147
H         -5.89975        1.34634        0.34459
H         -6.01143        0.45012       -1.15410
H         -4.23726        0.47381        1.91960
H         -4.78643       -1.03740        1.19292
H         -3.05923       -0.70154        1.34761
C         -1.19835       -3.64265        1.28103
C         -0.77656       -3.33989       -0.03859
C         -0.38888       -2.04204       -0.31846
C         -0.35214       -1.08474        0.65945
C         -0.64602       -1.40156        1.95967
C         -1.03323       -2.68314        2.31266
O         -1.82509       -4.88639        1.55868
C         -0.78030       -4.37676       -1.17167
H         -0.11730       -1.75047       -1.31706
H         -0.58869       -0.62289        2.69961
C         -1.30408       -2.99710        3.79184
C          4.62360        0.95446       -0.02388
C          3.80927        1.95616       -0.61262
C          2.43299        1.81813       -0.52914
C          1.87103        0.77814        0.16267
C          2.65300       -0.13330        0.82267
C          4.03464       -0.05331        0.78171
O          6.02234        0.93838       -0.27019
C          4.39438        3.15842       -1.37015
H          1.77626        2.51516       -1.02075
H          2.16358       -0.92518        1.36294
C          4.86326       -1.07651        1.57409
C         -0.50149       -5.79103       -0.63189
C         -2.14006       -4.33928       -1.88572
C          0.32760       -4.06053       -2.20252
C         -1.00918       -4.47398        4.11063
C         -0.38672       -2.14920        4.70265
C         -2.76737       -2.66506        4.12171
C         -3.23955       -4.86327        1.41186
H          0.44125       -5.81433       -0.08629
H         -1.28649       -6.11921        0.04484
H         -0.44207       -6.51564       -1.44359
H         -2.33256       -3.34773       -2.29510
H         -2.17013       -5.05526       -2.70656
H         -2.95101       -4.57766       -1.20154
H          1.29381       -3.94922       -1.71116
H          0.41468       -4.86233       -2.93529
H          0.11676       -3.14586       -2.75449
H          0.01446       -4.72820        3.83758
H         -1.13799       -4.67899        5.17310
H         -1.67427       -5.13846        3.56493
H         -0.64123       -1.09122        4.66046
H         -0.48150       -2.45911        5.74312
H          0.65784       -2.26246        4.41334
H         -2.98959       -2.87683        5.16726
H         -2.97375       -1.61048        3.94030
H         -3.45151       -3.24628        3.50785
H         -3.71072       -5.11835        2.36092
H         -3.57340       -3.87444        1.09470
H         -3.54210       -5.60338        0.67121
C          6.39966        0.18285       -1.41449
C          4.55891        2.79095       -2.85274
C          3.45228        4.37946       -1.26706
C          5.74780        3.58720       -0.77456
C          5.12846       -2.30656        0.69269
C          6.19374       -0.46509        2.04906
C          4.10053       -1.53357        2.83916
H          4.95749        3.63050       -3.42164
H          5.23523        1.94888       -2.97765
H          3.59983        2.51182       -3.28846
H          3.20924        4.59470       -0.22684
H          3.92143        5.26678       -1.69156
H          2.52283        4.21905       -1.81127
H          5.64703        3.80678        0.28779
H          6.49556        2.80583       -0.88369
H          6.12936        4.47920       -1.27077
H          5.68406       -2.03815       -0.20252
H          5.70353       -3.05783        1.23334
H          4.19059       -2.76235        0.37582
H          6.82586       -0.18831        1.20909
H          6.01400        0.43158        2.64121
H          6.75237       -1.17103        2.66313
H          3.78039       -0.67580        3.43014
H          4.73515       -2.15606        3.46952
H          3.22131       -2.12563        2.58909
H          5.51907       -0.24850       -1.89230
H          6.91932        0.82714       -2.12345
H          7.08053       -0.61487       -1.11811
