45
-71.81594173
C          0.43867        0.50028        2.55498
P          0.98142        0.57628        0.81445
P         -1.59605        0.38818       -1.02416
C         -2.34657        0.18089       -2.67343
Cl         1.56468       -2.49832        0.51713
H         -0.64318        0.58199        2.60755
H         -2.74167       -0.82587       -2.77433
Cl        -0.97581       -2.62595       -1.74621
C          0.34668        2.05402       -0.00269
C         -0.76012        1.97497       -0.82000
C         -1.25138        3.10957       -1.43239
C         -0.62048        4.32528       -1.23426
C          0.49323        4.40258       -0.42047
C          0.97774        3.26401        0.19914
H         -2.12797        3.04014       -2.05576
H         -1.00063        5.21250       -1.71337
H          0.98429        5.34926       -0.26608
H          1.84522        3.30835        0.83818
Pd        -0.00638       -1.15859       -0.35639
H         -1.59694        0.34348       -3.44254
H          0.88171        1.31668        3.11815
H         -3.15640        0.89214       -2.80819
C         -4.50371       -0.33616        2.38992
C         -4.22568       -1.34781        1.49133
C         -3.35050       -1.11688        0.44573
C         -2.76986        0.12215        0.30339
C         -3.03340        1.13048        1.20153
C         -3.90726        0.90197        2.24901
H         -5.18424       -0.51494        3.20634
H         -4.68253       -2.31681        1.60771
H         -3.08942       -1.90162       -0.24672
H         -2.55269        2.08798        1.08210
H         -4.11996        1.68833        2.95446
C          5.47961        0.24883        0.21977
C          4.65339        0.57203       -0.83829
C          3.28798        0.67465       -0.63907
C          2.76077        0.45789        0.61383
C          3.57975        0.13083        1.67040
C          4.94506        0.02717        1.47363
H          6.54312        0.16565        0.06591
H          5.06926        0.74077       -1.81798
H          2.62760        0.92129       -1.45595
H          3.15095       -0.04999        2.64254
H          5.58967       -0.23103        2.29774
H          0.74020       -0.44473        2.99771
