87
-129.18046023
P         -1.49324       -0.38685       -0.34921
P          1.78730        0.29875        0.29478
C         -1.06131        0.82992       -1.59949
C          1.60454       -0.86021       -1.08511
C          0.05110        0.60458       -2.40093
C          0.38528        1.55685       -3.38414
C         -0.41469        2.67827       -3.53277
C         -1.51804        2.87971       -2.72926
C         -1.83893        1.95023       -1.75952
C          2.24786       -2.05941       -0.88610
C          2.15967       -3.06623       -1.82784
C          1.41322       -2.86696       -2.96817
C          0.74044       -1.67640       -3.18233
C          0.83502       -0.64618       -2.22679
Cl         0.95503       -0.01365        3.42793
Cl        -1.54943       -1.82463        2.55402
H         -2.12532        3.76115       -2.85417
H         -2.70074        2.09537       -1.12947
H          2.81708       -2.20870        0.01945
H          2.66760       -4.00309       -1.66783
H         -0.15854        3.40440       -4.28549
H          1.33647       -3.64936       -3.70411
C         -2.39612       -4.37244       -2.33167
C         -2.81960       -3.19546       -2.93338
C         -2.54474       -1.98964       -2.29768
C         -1.85454       -1.97082       -1.10811
C         -1.44877       -3.14196       -0.51348
C         -1.71591       -4.34918       -1.13002
H         -2.61029       -5.31190       -2.81216
C         -3.57613       -3.22600       -4.21461
H         -2.86415       -1.06020       -2.73996
H         -0.94776       -3.10726        0.43989
H         -1.39907       -5.27051       -0.66950
C         -5.15714        1.00987        1.97142
C         -5.21503       -0.15008        1.22479
C         -4.10457       -0.56997        0.51744
C         -2.94881        0.17419        0.55617
C         -2.88935        1.33001        1.29937
C         -3.99184        1.76219        2.02589
H         -6.02090        1.33916        2.52348
H         -6.12275       -0.73032        1.19666
H         -4.13222       -1.47914       -0.06074
H         -1.98088        1.90621        1.31416
C         -3.92451        3.01759        2.82217
C          6.12481        0.06674        1.66196
C          5.82016        0.19523        0.32113
C          4.49935        0.26037       -0.08325
C          3.49515        0.19714        0.85523
C          3.79930        0.07126        2.18931
C          5.11856       -0.00464        2.61495
H          7.15245        0.02200        1.98033
H          6.61020        0.24600       -0.41010
H          4.24574        0.35467       -1.12753
H          3.00115        0.03128        2.90848
C          5.44251       -0.11679        4.06334
C          0.78987        4.67416       -0.42917
C          1.69386        4.03532       -1.25484
C          2.00935        2.70752       -1.03529
C          1.41079        2.02960       -0.00015
C          0.54137        2.67491        0.84943
C          0.21123        4.00862        0.64256
H          0.53127        5.70409       -0.60704
H          2.14526        4.56703       -2.07634
H          2.70772        2.19179       -1.67418
H          0.15083        2.15032        1.70472
C         -0.76482        4.69791        1.52891
Pd        -0.05904       -0.52272        1.49397
C          1.57865        1.38695       -4.25823
C         -0.06783       -1.51875       -4.42386
H          2.16410        2.30660       -4.29971
H          2.23395        0.59639       -3.89067
H          1.28173        1.13307       -5.27656
H         -0.79073       -0.70773       -4.33169
H          0.57295       -1.30457       -5.28000
H         -0.62455       -2.43074       -4.64328
H         -3.51916       -2.26618       -4.73020
H         -3.17774       -3.98730       -4.88693
H         -4.62894       -3.44995       -4.03726
H         -2.97076        3.09572        3.34591
H         -4.03091        3.89181        2.17845
H         -4.71613        3.05408        3.57181
H          4.64079       -0.61826        4.60744
H          6.35760       -0.68991        4.21902
H          5.58265        0.87028        4.50605
H         -0.49961        5.74735        1.66440
H         -1.76843        4.65630        1.10345
H         -0.79568        4.23454        2.51598
