111
-148.55378936
P         -2.29121        2.45356       -0.26763
P         -0.11679        0.27551        0.50354
C         -1.81076        2.23594        1.46301
C         -0.89581        1.26208        1.79732
C         -2.04675        4.20181       -0.81597
C         -0.92035        4.28500       -1.82335
C         -2.37056        3.02486        2.44709
H         -3.07391        3.79508        2.17468
C         -2.02463        2.82098        3.77185
H         -2.46280        3.43443        4.54210
C         -1.12383        1.82846        4.10774
H         -0.85921        1.66510        5.13947
C         -0.55767        1.04616        3.11706
H          0.14497        0.26520        3.36321
Pd        -1.20394        0.81533       -1.47465
Cl        -2.56582        1.26764       -3.19972
Cl        -0.17411       -0.91273       -2.48147
C         -3.42846        4.59910       -1.37040
C         -4.11717        2.28391       -0.53539
H          0.02143        3.93025       -1.39684
H         -1.13811        3.66583       -2.69611
H         -0.77101        5.30953       -2.17252
H         -3.42182        4.46421       -2.46071
H         -3.61327        5.67168       -1.20762
H         -4.23220        1.71150       -1.46526
C         -4.56777        3.73932       -0.75356
C         -4.80255        1.57015        0.61000
H         -1.81083        4.77864        0.08797
H         -4.86997        4.16617        0.21260
H         -5.46924        3.77015       -1.38437
H         -4.67573        2.11729        1.54500
H         -5.87548        1.46851        0.43168
H         -4.38764        0.57090        0.75626
C         -1.07393       -4.15437        0.87257
C          0.27214       -3.74782        0.68586
C          0.53856       -2.39315        0.58584
C         -0.45731       -1.46388        0.73134
C         -1.74144       -1.84628        1.01885
C         -2.07491       -3.18556        1.14256
O         -1.42601       -5.52358        0.73875
C          1.42920       -4.74670        0.53235
H          1.53199       -2.04515        0.36597
H         -2.48790       -1.07844        1.13026
C         -3.51545       -3.56127        1.52232
C          4.34325        1.15197        0.06114
C          3.66429        0.37912       -0.91411
C          2.30595        0.17277       -0.75297
C          1.63807        0.62681        0.35366
C          2.31183        1.29032        1.34609
C          3.67101        1.53831        1.24870
O          5.68309        1.56603       -0.16484
C          4.36634       -0.21295       -2.14648
H          1.73609       -0.34163       -1.50582
H          1.75614        1.62451        2.20318
C          4.39054        2.23744        2.41336
C          1.61012       -5.08354       -0.95564
C          2.74702       -4.14008        1.06658
C          1.16814       -6.03098        1.33990
C         -3.56537       -4.90551        2.27122
C         -4.11970       -2.49967        2.46949
C         -4.37171       -3.63179        0.24881
C         -1.79010       -5.89459       -0.58511
H          2.44245       -5.77126       -1.10270
H          0.71537       -5.54566       -1.36599
H          1.81002       -4.18140       -1.53319
H          2.62042       -3.77621        2.08586
H          3.54123       -4.88624        1.07378
H          3.09248       -3.31301        0.44864
H          2.01792       -6.71058        1.28077
H          0.99409       -5.79557        2.38930
H          0.29580       -6.56295        0.96869
H         -3.23106       -5.72497        1.64023
H         -2.92328       -4.87845        3.15096
H         -4.57937       -5.13470        2.59799
H         -3.46985       -2.33218        3.32803
H         -4.27168       -1.54734        1.96499
H         -5.09155       -2.82205        2.84256
H         -3.99075       -4.38197       -0.44037
H         -5.40473       -3.88489        0.48581
H         -4.36906       -2.67381       -0.27080
H         -2.81600       -6.26224       -0.59448
H         -1.70497       -5.03847       -1.25577
H         -1.13736       -6.69506       -0.93307
C          5.79991        2.80764       -0.84843
C          3.67190       -1.51947       -2.59542
C          4.30081        0.79702       -3.30198
C          5.83030       -0.57108       -1.83311
C          4.36094        3.75718        2.19170
C          3.69233        1.92307        3.75634
C          5.84460        1.74729        2.53938
H          3.59309       -2.22057       -1.76557
H          2.67188       -1.33389       -2.98412
H          4.23787       -2.00502       -3.38999
H          3.26562        1.02833       -3.55205
H          4.79387        1.72988       -3.03939
H          4.78326        0.40057       -4.19497
H          5.88465       -1.25634       -0.98780
H          6.30865       -1.04828       -2.68805
H          6.41105        0.31305       -1.58289
H          4.86530        4.03110        1.26832
H          3.33428        4.11711        2.12805
H          4.85233        4.28086        3.01132
H          4.27395        2.30778        4.59381
H          2.70638        2.38178        3.81568
H          3.58058        0.84773        3.89297
H          5.87578        0.66425        2.65367
H          6.33541        2.19408        3.40365
H          6.42850        2.00661        1.65976
H          6.33438        2.66063       -1.78675
H          4.81281        3.22398       -1.05330
H          6.37084        3.50762       -0.23856
