111
-148.55542353
P         -2.52281        2.12813        0.83187
P          0.10592        0.39614        0.52769
C         -1.47979        1.81661        2.28162
C         -0.31613        1.09309        2.13546
C         -3.26095        3.82488        0.86052
C         -2.60428        4.72550       -0.16288
C         -1.84758        2.28389        3.52713
H         -2.76895        2.83130        3.64031
C         -1.03959        2.03233        4.62271
H         -1.32571        2.39665        5.59587
C          0.13046        1.31282        4.47156
H          0.75805        1.11547        5.32499
C          0.49156        0.83757        3.22356
H          1.39371        0.26123        3.08943
Pd        -1.26548        1.48124       -0.98750
Cl        -2.89704        2.21311       -2.33960
Cl         0.12720        0.83394       -2.63001
C         -4.75690        3.55391        0.61215
C         -4.05943        1.09873        0.80206
H         -3.04030        5.72719       -0.15191
H         -1.53135        4.81959        0.02132
H         -2.72905        4.32336       -1.16940
H         -4.95872        3.65395       -0.46324
H         -5.37302        4.32375        1.10114
H         -4.14777        0.71424       -0.22297
C         -5.16836        2.12952        1.08329
C         -3.98251       -0.03850        1.79754
H         -3.10595        4.21567        1.87420
H         -5.37158        2.14479        2.16297
H         -6.11129        1.81606        0.60987
H         -3.15030       -0.70740        1.56813
H         -3.82827        0.34141        2.80918
H         -4.90088       -0.63015        1.80066
C         -1.23602       -3.94117        0.17655
C         -1.20006       -3.32711        1.45539
C         -0.77666       -2.01113        1.54056
C         -0.47524       -1.29417        0.41282
C         -0.61953       -1.84936       -0.83061
C         -1.03325       -3.15937       -0.98900
O         -1.43256       -5.34345        0.06706
C         -1.57597       -4.07815        2.74219
H         -0.66519       -1.52887        2.49544
H         -0.38775       -1.23594       -1.68391
C         -1.21807       -3.71066       -2.41075
C          4.49735        0.71349       -0.62908
C          3.82506       -0.53079       -0.73159
C          2.49043       -0.58341       -0.36961
C          1.84724        0.51457        0.13820
C          2.51735        1.69376        0.33118
C          3.85685        1.81449       -0.00346
O          5.79478        0.86709       -1.18610
C          4.49742       -1.80315       -1.27043
H          1.92492       -1.48904       -0.49948
H          1.97150        2.52723        0.73892
C          4.58149        3.13952        0.28121
C         -2.13799       -3.10277        3.80152
C         -2.67180       -5.12518        2.47190
C         -0.32443       -4.75831        3.31713
C         -2.29781       -4.80699       -2.44753
C         -1.68201       -2.59000       -3.37020
C          0.12225       -4.26622       -2.91610
C         -0.22650       -6.09711        0.07820
H         -2.96393       -2.52101        3.39378
H         -2.51038       -3.64745        4.66883
H         -1.37619       -2.41277        4.16115
H         -3.54650       -4.65738        2.02123
H         -2.32154       -5.89990        1.79428
H         -2.98498       -5.61212        3.39509
H          0.09266       -5.47500        2.61374
H          0.44777       -4.02145        3.53704
H         -0.55749       -5.28917        4.23982
H         -3.23979       -4.43056       -2.05009
H         -2.47267       -5.15089       -3.46665
H         -2.00771       -5.67051       -1.85447
H         -1.94149       -2.99882       -4.34634
H         -2.56113       -2.08116       -2.97572
H         -0.90229       -1.84755       -3.53277
H          0.48467       -5.06626       -2.27473
H          0.02502       -4.66163       -3.92681
H          0.88141       -3.48452       -2.93147
H          0.63328       -5.43811        0.20613
H         -0.25553       -6.81940        0.89392
H         -0.12718       -6.64506       -0.85859
C          5.79450        1.29051       -2.54379
C          4.30357       -1.87077       -2.79300
C          5.99631       -1.83015       -0.92157
C          3.86494       -3.06523       -0.63865
C          4.42729        4.07310       -0.92902
C          3.97656        3.83616        1.52146
C          6.07252        2.90390        0.58394
H          3.24349       -1.87778       -3.04571
H          4.75407       -1.01305       -3.28644
H          4.75553       -2.77265       -3.20502
H          6.45881       -2.76004       -1.25156
H          6.52973       -1.01101       -1.39707
H          6.14113       -1.74239        0.15468
H          2.83852       -3.21361       -0.97095
H          4.42243       -3.95868       -0.91894
H          3.86696       -2.99708        0.44890
H          4.91804        5.02938       -0.74983
H          4.86281        3.63462       -1.82352
H          3.37470        4.26651       -1.13446
H          3.95289        3.15786        2.37402
H          4.56824        4.70698        1.80296
H          2.96288        4.18663        1.33328
H          6.59133        2.48672       -0.27543
H          6.19012        2.20891        1.41466
H          6.57081        3.83627        0.84831
H          4.77219        1.42871       -2.89824
H          6.34140        2.22887       -2.63430
H          6.29546        0.54449       -3.16042
