171
-217.83431624
P         -1.66460        0.80750        0.22076
P          1.52549       -0.31842       -0.32717
C         -0.87819        1.84311       -1.03682
C          0.54056       -0.98319       -1.68742
C         -0.21239        1.34707       -2.15263
C          0.48122        2.24529       -2.98491
C          0.44584        3.59921       -2.69838
C         -0.22974        4.07608       -1.59561
C         -0.87819        3.18956       -0.75729
C          0.52832       -2.33105       -1.95461
C         -0.22767       -2.83109       -2.99641
C         -0.98880       -1.97451       -3.76294
C         -1.01387       -0.61523       -3.49789
C         -0.22139       -0.10723       -2.45078
Cl         2.25821        1.29579        2.40728
Cl        -0.67469        1.02041        3.42944
C         -1.86577        0.29420       -4.31373
C          1.27338        1.77487       -4.15490
H         -0.24089        5.13200       -1.38001
H         -1.38150        3.54443        0.12992
H          1.08866       -3.00420       -1.33073
H         -0.22971       -3.88846       -3.20490
H          0.96319        4.28198       -3.35097
H         -1.57828       -2.36236       -4.57619
C         -3.03026       -3.42493       -0.67416
C         -1.93128       -3.25693        0.15937
C         -1.50099       -1.96054        0.41669
C         -2.13564       -0.88694       -0.16567
C         -3.21911       -1.07641       -0.98744
C         -3.69445       -2.35255       -1.25614
H         -3.38513       -4.42189       -0.85514
H         -0.66641       -1.78369        1.07055
H         -3.71778       -0.21861       -1.40383
C         -5.47119        2.87438        1.54918
C         -4.58229        2.43872        2.52512
C         -3.41296        1.82223        2.10524
C         -3.14521        1.65890        0.77106
C         -4.02784        2.10542       -0.18166
C         -5.21839        2.71759        0.19158
H         -6.38653        3.35078        1.84609
H         -2.69088        1.47814        2.82339
H         -3.77450        1.97767       -1.22036
C          3.67600       -3.73287        1.80196
C          3.74225       -3.64379        0.41716
C          3.09870       -2.57741       -0.19764
C          2.39121       -1.65599        0.53714
C          2.35465       -1.75986        1.90752
C          2.99527       -2.79784        2.56901
H          4.17312       -4.54145        2.30375
H          3.14094       -2.47666       -1.26814
H          1.83906       -1.01060        2.47589
C          4.60190        2.53274       -2.04101
C          4.53324        1.23585       -2.53666
C          3.59112        0.37875       -1.98157
C          2.75626        0.80921       -0.98034
C          2.83136        2.09709       -0.51273
C          3.76231        2.98689       -1.03190
H          5.33134        3.21140       -2.44112
H          3.50108       -0.63156       -2.34108
H          2.15729        2.40355        0.26661
Pd         0.31327        0.68123        1.43949
C         -0.86410       -5.49355       -0.28897
C         -1.27616       -4.48828        0.80352
C         -2.28427       -5.14822        1.76117
C         -0.01726       -4.11134        1.60341
H         -0.15878       -5.04076       -0.98417
H         -0.38507       -6.36885        0.14949
H         -1.72432       -5.83850       -0.86083
H         -3.17740       -5.47491        1.22961
H         -1.84700       -6.01935        2.24879
H         -2.59373       -4.44696        2.53596
H          0.44834       -4.99865        2.03162
H          0.71936       -3.63280        0.96108
H         -0.25641       -3.43352        2.42234
C         -5.29484       -4.00463       -2.34730
C         -4.96239       -2.51986       -2.10601
C         -4.76544       -1.83958       -3.47245
C         -6.14451       -1.86132       -1.37055
H         -6.18257       -4.10542       -2.97163
H         -4.47395       -4.51135       -2.85462
H         -5.49388       -4.52100       -1.40847
H         -3.92213       -2.28076       -4.00189
H         -5.65144       -1.95481       -4.09659
H         -4.57586       -0.77293       -3.36110
H         -5.96743       -0.79770       -1.21417
H         -7.06759       -1.96670       -1.94023
H         -6.29474       -2.32108       -0.39397
C         -4.87181        1.22417        4.69847
C         -4.84141        2.61055        4.02851
C         -6.18411        3.31550        4.29989
C         -3.71076        3.45667        4.64351
H         -3.92076        0.70643        4.57911
H         -5.07188        1.31095        5.76623
H         -5.64966        0.60075        4.25803
H         -6.35109        3.42969        5.37091
H         -6.20148        4.31059        3.85574
H         -7.01753        2.74098        3.89601
H         -3.87536        3.61241        5.70947
H         -2.74292        2.97115        4.52396
H         -3.65620        4.43342        4.16336
C         -6.42941        4.72487       -0.69722
C         -6.24307        3.20383       -0.84311
C         -7.58598        2.48874       -0.60438
C         -5.78282        2.90250       -2.28354
H         -5.48237        5.24392       -0.84393
H         -7.13960        5.10333       -1.43222
H         -6.80336        4.98469        0.29245
H         -7.46509        1.40821       -0.67903
H         -7.98499        2.71307        0.38408
H         -8.32816        2.79684       -1.34063
H         -6.52276        3.24675       -3.00594
H         -4.84325        3.40651       -2.50943
H         -5.64674        1.83189       -2.43620
C          5.45345       -4.01703       -1.38694
C          4.44378       -4.70177       -0.44651
C          3.38379       -5.44565       -1.27971
C          5.20330       -5.72856        0.41548
H          6.00540       -4.75433       -1.96968
H          4.95298       -3.35164       -2.08875
H          6.17293       -3.42868       -0.81778
H          2.85482       -4.76282       -1.94377
H          3.84227       -6.22077       -1.89344
H          2.64659       -5.91887       -0.63117
H          5.95062       -5.23861        1.03945
H          4.52141       -6.28222        1.06060
H          5.72031       -6.45377       -0.21284
C          4.43877       -2.74217        4.61209
C          2.99612       -2.90574        4.10133
C          2.44771       -4.28007        4.52791
C          2.12009       -1.81390        4.74922
H          4.84669       -1.77864        4.30716
H          4.47690       -2.79661        5.69989
H          5.08833       -3.52131        4.21463
H          2.44545       -4.37726        5.61344
H          1.42451       -4.41298        4.17894
H          3.04931       -5.09306        4.12370
H          1.08831       -1.88217        4.40492
H          2.11339       -1.91641        5.83410
H          2.49557       -0.81758        4.51695
C          4.66408        0.08971       -4.77414
C          5.48114        0.71381       -3.62621
C          6.40383       -0.35300       -3.01061
C          6.35211        1.84155       -4.21259
H          4.06125       -0.74845       -4.42719
H          3.99387        0.82608       -5.21620
H          5.32066       -0.28008       -5.56153
H          5.82623       -1.18472       -2.61018
H          7.09471       -0.75030       -3.75398
H          6.98976        0.06885       -2.19426
H          5.73367        2.63321       -4.63543
H          6.99918        2.27635       -3.45114
H          6.99300        1.46097       -5.00787
C          5.30881        4.59519        0.10540
C          3.90340        4.41932       -0.49780
C          2.86175        4.72126        0.59818
C          3.70325        5.42092       -1.64941
H          5.47298        3.87902        0.91034
H          6.08351        4.43916       -0.64444
H          5.43591        5.59765        0.51366
H          1.84733        4.60874        0.21728
H          2.98529        4.05462        1.45142
H          2.96652        5.74349        0.96105
H          2.71580        5.30393       -2.09355
H          3.79175        6.44703       -1.29299
H          4.44347        5.27645       -2.43534
H         -2.62437       -0.25998       -4.86790
H          0.80177        2.07201       -5.09260
H         -1.26589        0.84651       -5.03757
H         -2.38037        1.01845       -3.67998
H          1.38013        0.68938       -4.15753
H          2.27643        2.20376       -4.13459
