111
-148.55204459
P         -1.68112        2.77305        0.27578
P         -0.48149       -0.15759        0.47041
C         -1.40197        2.01152        1.90020
C         -0.95150        0.71055        1.98160
C         -0.50114        4.17382        0.01970
C          0.43806        3.87612       -1.12966
C         -1.60689        2.74019        3.05452
H         -1.91752        3.76974        2.98546
C         -1.38761        2.15401        4.28913
H         -1.55181        2.72212        5.19021
C         -0.95260        0.84508        4.36771
H         -0.77652        0.39030        5.32864
C         -0.72362        0.12470        3.20943
H         -0.35052       -0.88607        3.25310
Pd        -1.61162        0.99219       -1.19576
Cl        -3.03713        2.04996       -2.55853
Cl        -1.28214       -0.82515       -2.48179
C         -1.42481        5.38607       -0.21691
C         -3.28984        3.68426        0.16564
H          1.12273        4.70785       -1.31155
H          1.03551        2.98308       -0.93569
H         -0.12276        3.69890       -2.04970
H         -1.48652        5.57424       -1.29751
H         -0.98024        6.29593        0.21367
H         -3.65120        3.52953       -0.85914
C         -2.85624        5.15014        0.34432
C         -4.31699        3.18807        1.16080
H          0.04982        4.28304        0.96302
H         -2.88181        5.40221        1.41324
H         -3.58270        5.82472       -0.13426
H         -5.26473        3.72039        1.05295
H         -4.51103        2.12120        1.02885
H         -3.97669        3.33371        2.18618
C         -0.50653       -4.68530        0.95378
C         -1.54948       -4.05455        0.22794
C         -1.53884       -2.67285        0.12970
C         -0.50343       -1.93732        0.64285
C          0.56400       -2.55048        1.24589
C          0.61003       -3.92737        1.38953
O         -0.59348       -6.06737        1.26972
C         -2.68048       -4.84373       -0.45072
H         -2.33651       -2.14868       -0.36745
H          1.36926       -1.93126        1.60305
C          1.85001       -4.57303        2.02750
C          3.60914        1.39265       -0.79908
C          2.88109        0.53117       -1.65886
C          1.64217        0.08091       -1.23792
C          1.15838        0.39467        0.00347
C          1.89800        1.14847        0.87560
C          3.14544        1.63241        0.51997
O          4.78022        2.04356       -1.27091
C          3.38344        0.12408       -3.05206
H          1.00826       -0.48982       -1.89356
H          1.47679        1.37231        1.83961
C          3.95018        2.44098        1.54895
C         -3.18343       -4.09817       -1.70848
C         -2.18880       -6.22599       -0.91776
C         -3.85254       -5.00192        0.52912
C          2.11367       -5.96934        1.43516
C          3.11128       -3.72193        1.75334
C          1.64611       -4.67244        3.54676
C         -1.26389       -6.34113        2.49344
H         -3.70204       -3.17602       -1.45114
H         -2.35343       -3.85007       -2.36954
H         -3.88602       -4.71407       -2.26923
H         -1.32808       -6.12357       -1.57781
H         -1.89139       -6.84668       -0.07623
H         -2.97056       -6.75794       -1.45935
H         -4.67474       -5.54933        0.06892
H         -3.54881       -5.54100        1.42330
H         -4.22817       -4.02767        0.84096
H          1.30080       -6.65541        1.66010
H          2.21382       -5.91365        0.35172
H          3.02948       -6.40010        1.83918
H          3.21992       -3.52160        0.68765
H          3.07773       -2.76929        2.28000
H          4.00867       -4.24088        2.08945
H          0.77875       -5.28200        3.78864
H          2.51575       -5.11784        4.02926
H          1.48823       -3.68488        3.97975
H         -0.59435       -6.87962        3.16395
H         -1.58470       -5.41285        2.96783
H         -2.13241       -6.97099        2.30186
C          4.53945        3.30521       -1.88222
C          4.91892        0.02193       -3.08176
C          2.83208       -1.26614       -3.44439
C          2.89690        1.15194       -4.08520
C          3.62271        1.97413        2.98599
C          5.46370        2.24469        1.34824
C          3.58511        3.92805        1.42360
H          5.27125       -0.67689       -2.32380
H          5.26971       -0.32563       -4.05316
H          5.38521        0.98474       -2.88924
H          3.28800       -1.61595       -4.37026
H          3.04437       -2.00063       -2.66793
H          1.75583       -1.24201       -3.60844
H          3.22388        0.88175       -5.08888
H          1.80850        1.20840       -4.08828
H          3.27833        2.14572       -3.86366
H          2.60312        2.22949        3.27117
H          3.74623        0.89555        3.08073
H          4.28485        2.45155        3.70796
H          5.72256        1.18738        1.39408
H          5.78934        2.62568        0.38366
H          6.03211        2.76695        2.11741
H          2.52177        4.07989        1.60673
H          3.80613        4.30677        0.42869
H          4.14020        4.52848        2.14383
H          3.47320        3.53307       -1.87985
H          5.07830        4.08301       -1.34149
H          4.90495        3.29013       -2.90887
