171
-217.83459254
P         -1.46588        0.14684       -0.24356
P          1.64706       -0.80392        0.11071
C         -0.65791        0.68686       -1.77032
C          0.79212       -2.01606       -0.92218
C          0.03842       -0.25438       -2.52026
C          0.69419        0.15361       -3.69785
C          0.58481        1.47255       -4.10580
C         -0.11965        2.39127       -3.35692
C         -0.73230        1.99493       -2.18479
C          0.75873       -3.30151       -0.43494
C          0.05623       -4.28333       -1.10553
C         -0.64111       -3.95960       -2.24939
C         -0.65330       -2.66344       -2.73629
C          0.08316       -1.66808       -2.06641
Cl         1.24677       -0.66958        3.32964
Cl        -1.95027       -1.20161        2.77981
C         -1.46773       -2.35448       -3.94350
C          1.48918       -0.80869       -4.50936
H         -0.18361        3.41718       -3.68086
H         -1.25034        2.71878       -1.58067
H          1.26385       -3.52995        0.49172
H          0.04241       -5.29252       -0.72744
H          1.06197        1.77780       -5.02147
H         -1.20471       -4.71647       -2.76862
C         -4.77182       -2.69447       -1.49115
C         -4.01869       -3.01689       -0.36826
C         -3.01398       -2.13966        0.01298
C         -2.76702       -0.99988       -0.70759
C         -3.51118       -0.70386       -1.82363
C         -4.53516       -1.54737       -2.23878
H         -5.57702       -3.34031       -1.78580
H         -2.43600       -2.33442        0.89767
H         -3.27621        0.18784       -2.37838
C         -3.60012        3.68974        1.68333
C         -3.78348        3.42352        0.33287
C         -3.12869        2.32473       -0.20986
C         -2.29016        1.55057        0.55571
C         -2.14075        1.82576        1.89483
C         -2.79838        2.89232        2.48949
H         -4.10400        4.53542        2.11208
H         -3.27482        2.06352       -1.24286
H         -1.53320        1.18698        2.50723
C          5.66612       -2.22171        1.64772
C          5.02745       -2.99955        0.68906
C          3.78520       -2.57895        0.23023
C          3.20224       -1.44444        0.73961
C          3.85287       -0.68297        1.67739
C          5.10307       -1.05575        2.15259
H          6.63209       -2.53343        1.99795
H          3.27515       -3.12087       -0.54563
H          3.38289        0.22096        2.02972
C          2.85286        3.28847       -1.39162
C          1.85198        3.21927       -0.43063
C          1.46448        1.96084        0.01350
C          2.04234        0.83150       -0.51781
C          3.03589        0.91839       -1.46137
C          3.46616        2.15851       -1.91671
H          3.17889        4.25517       -1.72870
H          0.70632        1.85381        0.76835
H          3.48427        0.00728       -1.82080
Pd        -0.14537       -0.64306        1.57697
C         -5.40465       -5.13744       -0.11404
C         -4.27248       -4.27432        0.47450
C         -4.66614       -3.85315        1.90259
C         -2.98747       -5.12155        0.52105
H         -6.34569       -4.58827       -0.13744
H         -5.16541       -5.45889       -1.12762
H         -5.56111       -6.03245        0.48802
H         -5.56126       -3.23185        1.88746
H         -4.86909       -4.72442        2.52488
H         -3.87133       -3.28075        2.37942
H         -2.68409       -5.41347       -0.48395
H         -2.16445       -4.56871        0.97242
H         -3.13872       -6.02905        1.10511
C         -5.58300       -2.41591       -4.36533
C         -5.43820       -1.19851       -3.43148
C         -4.86213       -0.02891       -4.25502
C         -6.82262       -0.79122       -2.89750
H         -6.05272       -3.25747       -3.85842
H         -6.19899       -2.16926       -5.23001
H         -4.61069       -2.74307       -4.73124
H         -4.81673        0.88590       -3.66508
H         -3.85894       -0.25879       -4.61304
H         -5.48614        0.17578       -5.12485
H         -7.27980       -1.60500       -2.33526
H         -6.74094        0.06909       -2.23323
H         -7.49466       -0.52629       -3.71357
C         -4.02893        5.74978       -0.55380
C         -4.66439        4.34799       -0.51883
C         -6.07372        4.42725        0.09680
C         -4.79675        3.83339       -1.96612
H         -4.62111        6.43235       -1.16304
H         -3.95349        6.17378        0.44696
H         -3.02416        5.70585       -0.97418
H         -6.04674        4.84689        1.10156
H         -6.72799        5.05550       -0.50743
H         -6.52167        3.43566        0.15952
H         -5.43416        4.49324       -2.55451
H         -3.82575        3.78982       -2.45925
H         -5.24205        2.83891       -1.98784
C         -1.18319        3.29684        4.37829
C         -2.66468        3.10338        4.00536
C         -3.21753        1.86168        4.73068
C         -3.45097        4.34017        4.47968
H         -0.77646        4.18378        3.89420
H         -1.06719        3.42210        5.45463
H         -0.58119        2.43986        4.07845
H         -4.26030        1.69247        4.46337
H         -2.65645        0.96633        4.46535
H         -3.16038        1.98262        5.81215
H         -3.34085        4.47900        5.55513
H         -3.08965        5.24497        3.99114
H         -4.51490        4.23363        4.26892
C          7.02581       -3.89271       -0.53292
C          5.70505       -4.27213        0.16081
C          4.81231       -5.01158       -0.85555
C          5.98947       -5.22415        1.33765
H          6.84301       -3.20396       -1.35761
H          7.71219       -3.40871        0.16097
H          7.52363       -4.77551       -0.93379
H          5.29790       -5.92217       -1.20621
H          3.86085       -5.29663       -0.40671
H          4.61097       -4.38995       -1.72776
H          5.06607       -5.47891        1.85747
H          6.44696       -6.14981        0.98885
H          6.66639       -4.77120        2.06091
C          4.92537       -0.03624        4.43521
C          5.80868       -0.16010        3.17956
C          6.03124        1.23365        2.56171
C          7.17530       -0.73595        3.59638
H          3.96168        0.41348        4.19937
H          4.73647       -1.01718        4.87052
H          5.40636        0.58329        5.19182
H          6.63400        1.16148        1.65653
H          5.08564        1.70471        2.29515
H          6.54695        1.89270        3.25984
H          7.65970       -0.09014        4.32870
H          7.06400       -1.72156        4.04796
H          7.84327       -0.82080        2.73940
C          0.70366        5.38278       -1.01252
C          1.25391        4.51543        0.13542
C          2.35323        5.28580        0.88863
C          0.10143        4.22738        1.11236
H         -0.06845        4.84829       -1.56425
H          0.26308        6.30235       -0.62758
H          1.48787        5.65961       -1.71570
H          3.17458        5.55151        0.22398
H          1.95982        6.20622        1.31976
H          2.76059        4.68035        1.69825
H         -0.70237        3.68752        0.61498
H          0.44699        3.63392        1.95775
H         -0.31780        5.15370        1.50480
C          5.16885        0.93732       -3.35984
C          4.61006        2.30760       -2.92900
C          5.75195        3.11574       -2.28482
C          4.09486        3.04171       -4.17969
H          5.97809        1.05844       -4.07981
H          5.56659        0.38979       -2.50541
H          4.39729        0.32918       -3.83048
H          6.59297        3.21766       -2.97046
H          5.42306        4.11725       -2.01009
H          6.11019        2.62174       -1.38167
H          3.28782        2.48080       -4.64880
H          3.71393        4.03133       -3.93024
H          4.88998        3.16516       -4.91476
H         -1.56607       -1.27954       -4.09810
H          0.87937       -1.25143       -5.29786
H         -2.47264       -2.76527       -3.84143
H         -1.01831       -2.78613       -4.83896
H          1.88196       -1.61666       -3.89007
H          2.33844       -0.31434       -4.98324
