111
-148.55006166
P         -2.32944        2.31227        0.63092
P          0.11531        0.28252        0.44521
C         -1.32238        1.97621        2.09606
C         -0.29323        1.06336        2.02164
C         -2.55175        4.12752        0.36719
C         -2.14132        4.50486       -1.03953
C         -1.60618        2.60086        3.29354
H         -2.39875        3.32999        3.33833
C         -0.87304        2.28741        4.42495
H         -1.09553        2.77260        5.36128
C          0.13426        1.34438        4.35732
H          0.69631        1.08915        5.24060
C          0.42251        0.72834        3.15273
H          1.19410       -0.02317        3.08942
Pd        -1.50934        0.99026       -1.07422
Cl        -3.31084        1.55985       -2.28205
Cl        -0.64647       -0.49202       -2.52687
C         -4.05012        4.34554        0.66311
C         -4.09926        1.78626        0.81242
H         -2.75009        3.97145       -1.77213
H         -2.26673        5.57505       -1.22128
H         -1.09644        4.24834       -1.23151
H         -4.42892        5.17361        0.04637
H         -4.18288        4.66871        1.70606
H         -4.25845        0.98303        0.08028
C         -4.88065        3.05517        0.41502
C         -4.40527        1.28862        2.20934
H         -1.91950        4.63896        1.10576
H         -5.82991        3.09151        0.96908
H         -5.15949        3.00259       -0.64772
H         -4.28928        2.09086        2.93930
H         -5.43118        0.92125        2.28785
H         -3.73295        0.47872        2.50034
C         -0.97130       -4.12519        0.73984
C         -1.95431       -3.11969        0.94008
C         -1.55559       -1.79467        0.87658
C         -0.26877       -1.45906        0.54509
C          0.65249       -2.42165        0.22731
C          0.32251       -3.76600        0.27540
O         -1.25914       -5.47475        1.06910
C         -3.44401       -3.41038        1.18875
H         -2.25429       -1.00098        1.08326
H          1.64025       -2.10973       -0.06421
C          1.36959       -4.78728       -0.20087
C          4.38982        1.13770       -0.93875
C          3.45922        0.53150       -1.81905
C          2.17294        0.31148       -1.35936
C          1.80613        0.61315       -0.07418
C          2.72892        1.12167        0.80339
C          4.03860        1.35447        0.41784
O          5.65936        1.55226       -1.42302
C          3.81384        0.15338       -3.26625
H          1.41925       -0.08734       -2.01315
H          2.41024        1.35160        1.80308
C          5.04764        1.85109        1.46637
C         -3.78364       -3.12327        2.66043
C         -4.30143       -2.49646        0.28456
C         -3.82087       -4.86201        0.84587
C          2.03426       -4.27782       -1.49917
C          2.45072       -4.95744        0.87853
C          0.74065       -6.15388       -0.52378
C         -0.97478       -5.78553        2.42271
H         -3.21587       -3.76794        3.32853
H         -3.55165       -2.09076        2.91929
H         -4.84306       -3.28833        2.85491
H         -4.19179       -1.44705        0.55045
H         -4.01451       -2.61043       -0.76042
H         -5.35908       -2.74329        0.37264
H         -4.89520       -5.02092        0.93582
H         -3.52482       -5.10454       -0.17414
H         -3.32749       -5.56548        1.51232
H          2.69675       -5.03368       -1.92020
H          1.28098       -4.03480       -2.24816
H          2.63455       -3.38793       -1.31922
H          2.92845       -4.00415        1.10303
H          2.02787       -5.34331        1.80373
H          3.22368       -5.65117        0.54874
H          0.33686       -6.62263        0.37065
H         -0.07330       -6.04225       -1.23928
H          1.47714       -6.83522       -0.94905
H         -1.22738       -6.82892        2.61250
H          0.08250       -5.62862        2.62827
H         -1.55878       -5.14750        3.08383
C          5.69510        2.89432       -1.89248
C          3.56721        1.36203       -4.18186
C          5.27890       -0.30677       -3.37305
C          2.93674       -1.01880       -3.76187
C          6.46608        1.33719        1.15909
C          5.03454        3.38681        1.50000
C          4.67687        1.32584        2.87261
H          3.79895        1.12008       -5.21875
H          2.52431        1.67448       -4.13308
H          4.18068        2.21067       -3.89020
H          5.46952       -1.13931       -2.69659
H          5.51467       -0.63186       -4.38606
H          5.96662        0.49526       -3.11676
H          3.26777       -1.36194       -4.74173
H          2.99503       -1.86266       -3.07640
H          1.89212       -0.72824       -3.86220
H          6.83584        1.72998        0.21545
H          7.16817        1.63543        1.93732
H          6.47404        0.24968        1.09375
H          5.30847        3.80572        0.53488
H          4.04132        3.75786        1.75190
H          5.73528        3.76693        2.24294
H          5.45922        1.56395        3.59293
H          4.55091        0.24347        2.86137
H          3.75636        1.77520        3.24229
H          4.71037        3.35501       -1.80492
H          6.41789        3.46689       -1.31160
H          6.01212        2.90770       -2.93517
