111
-148.55605582
P         -1.67397        2.75651        0.20436
P         -0.53814       -0.17830        0.47232
C         -1.43402        2.03239        1.84991
C         -1.00832        0.72568        1.96363
C         -0.52638        4.17914       -0.07701
C          0.47173        3.85484       -1.16795
C         -1.65135        2.78704        2.98478
H         -1.95041        3.81801        2.88839
C         -1.46301        2.22176        4.23419
H         -1.63590        2.80933        5.12105
C         -1.04837        0.90837        4.34585
H         -0.89635        0.47022        5.31854
C         -0.81074        0.16099        3.20647
H         -0.45513       -0.85459        3.27641
Pd        -1.62940        0.95856       -1.23794
Cl        -2.31620        2.30604       -2.88906
Cl        -1.41421       -0.93520       -2.43111
C         -1.47751        5.34324       -0.42134
C         -3.30514        3.60847        0.00193
H         -0.04175        3.60837       -2.09942
H          1.13484        4.69992       -1.36696
H          1.08999        2.99604       -0.90070
H         -1.50565        5.46134       -1.51325
H         -1.07704        6.29228       -0.03412
H         -3.63486        3.37644       -1.01964
C         -2.92056        5.09526        0.10374
C         -4.33713        3.14183        1.00650
H         -0.02113        4.35904        0.88101
H         -2.99100        5.40991        1.15403
H         -3.64909        5.71652       -0.43946
H         -5.29779        3.63753        0.84943
H         -4.49690        2.06338        0.93740
H         -4.02035        3.36038        2.02669
C         -0.43834       -4.68363        1.12694
C         -1.52121       -4.10803        0.41370
C         -1.54822       -2.73175        0.25775
C         -0.51591       -1.95132        0.70670
C          0.58497       -2.51345        1.29916
C          0.67217       -3.88186        1.49416
O         -0.47865       -6.05406        1.49832
C         -2.65726       -4.95214       -0.18584
H         -2.37436       -2.24742       -0.23309
H          1.38376       -1.86046        1.60747
C          1.95100       -4.46918        2.11152
C          3.50863        1.43883       -0.84985
C          2.77957        0.57172       -1.70643
C          1.55784        0.09396       -1.26603
C          1.09279        0.38567       -0.01194
C          1.84542        1.12386        0.86236
C          3.07982        1.62904        0.49109
O          4.60775        2.17836       -1.35734
C          3.24959        0.14224       -3.10530
H          0.92343       -0.47980       -1.91997
H          1.44842        1.32256        1.84287
C          3.89946        2.36731        1.56174
C         -3.78197       -5.10358        0.84912
C         -3.23431       -4.26960       -1.44738
C         -2.14696       -6.33791       -0.62150
C          2.22974       -5.88231        1.56806
C          3.17856       -3.59928        1.75478
C          1.80565       -4.50855        3.64021
C         -1.08966       -6.29571        2.75935
H         -3.42598       -5.60068        1.74827
H         -4.17056       -4.12832        1.14133
H         -4.60765       -5.68900        0.44539
H         -3.76696       -3.35217       -1.20207
H         -2.44081       -4.02598       -2.15340
H         -3.94302       -4.92513       -1.95281
H         -2.93569       -6.91110       -1.10812
H         -1.31828       -6.23838       -1.32176
H         -1.79678       -6.91736        0.22912
H          1.44357       -6.57811        1.85050
H          2.28989       -5.86984        0.48031
H          3.17026       -6.27301        1.95570
H          3.24227       -3.44116        0.67841
H          3.13970       -2.62642        2.24272
H          4.10115       -4.08130        2.07738
H          0.96371       -5.12786        3.94013
H          2.70363       -4.91176        4.10767
H          1.63850       -3.50746        4.03718
H         -0.37692       -6.78498        3.42299
H         -1.42054       -5.35827        3.20815
H         -1.94461       -6.95913        2.63009
C          4.22517        3.43157       -1.90062
C          3.05461       -1.38206       -3.26459
C          2.40983        0.87049       -4.16860
C          4.74219        0.43223       -3.33787
C          5.36775        2.56218        1.14590
C          3.25523        3.73538        1.84239
C          3.90641        1.53561        2.86382
H          2.00319       -1.66197       -3.22759
H          3.44812       -1.72620       -4.22066
H          3.57464       -1.92079       -2.47296
H          2.70350        0.56591       -5.17267
H          1.34990        0.64869       -4.04744
H          2.53213        1.94941       -4.09608
H          5.34790       -0.01694       -2.55160
H          5.07555        0.03232       -4.29521
H          4.94026        1.50134       -3.34167
H          5.82005        1.60858        0.87579
H          5.45114        3.22508        0.28818
H          5.95105        2.99813        1.95662
H          3.80738        4.27552        2.61096
H          3.23548        4.35307        0.94661
H          2.22822        3.61861        2.18724
H          4.28385        0.53079        2.67580
H          2.90992        1.44605        3.29319
H          4.54334        1.99869        3.61704
H          3.80196        4.06424       -1.12247
H          5.10172        3.92210       -2.32427
H          3.47939        3.28978       -2.68103
