111
-148.55295637
P         -2.69339        1.90026       -0.28384
P          0.07143        0.51055        0.35582
C         -1.92727        2.13170        1.34373
C         -0.69581        1.56749        1.59718
C         -3.56220        3.43346       -0.85026
C         -2.76544        4.17340       -1.90247
C         -2.56442        2.86094        2.32737
H         -3.53604        3.28432        2.13274
C         -1.95878        3.02956        3.56077
H         -2.45547        3.59893        4.32937
C         -0.72100        2.46761        3.80923
H         -0.25153        2.59651        4.77056
C         -0.08891        1.72926        2.82488
H          0.86888        1.26706        3.00689
Pd        -1.06399        0.94884       -1.61438
Cl        -2.39125        1.29023       -3.38666
Cl         0.65424        0.00513       -2.71507
C         -4.92335        2.89440       -1.32724
C         -4.10245        0.69987       -0.29162
H         -2.61057        3.54932       -2.78327
H         -3.28026        5.08001       -2.22881
H         -1.78018        4.45874       -1.52614
H         -4.85898        2.67774       -2.40252
H         -5.69989        3.66801       -1.22687
H         -3.92572        0.03104       -1.14472
C         -5.32303        1.59993       -0.56210
C         -4.16879       -0.08466        1.00071
H         -3.69462        4.06108        0.04010
H         -5.78263        1.87018        0.39855
H         -6.09598        1.04174       -1.11192
H         -4.27646        0.58519        1.85581
H         -5.01723       -0.77288        1.00780
H         -3.25929       -0.66886        1.15450
C         -1.25025       -3.79495        1.03448
C         -0.63465       -3.42561       -0.18862
C         -0.25434       -2.10604       -0.35526
C         -0.39527       -1.19322        0.65533
C         -0.88659       -1.57038        1.87735
C         -1.28998       -2.87398        2.11285
O         -1.86356       -5.06928        1.16505
C         -0.41750       -4.41312       -1.34501
H          0.13947       -1.75793       -1.29395
H         -0.96891       -0.82239        2.64589
C         -1.79632       -3.25849        3.51189
C          4.58478        1.04037        0.09101
C          3.72468        2.09896       -0.29879
C          2.35698        1.91526       -0.17251
C          1.84338        0.71601        0.24595
C          2.66600       -0.34617        0.51648
C          4.04187       -0.23000        0.41141
O          5.98381        1.26297        0.19372
C          4.25535        3.43534       -0.84091
H          1.66833        2.71051       -0.40214
H          2.21410       -1.27698        0.81179
C          4.91699       -1.46927        0.65653
C          0.83332       -4.02305       -2.16541
C         -0.18137       -5.84096       -0.82072
C         -1.64132       -4.38211       -2.27307
C         -3.31060       -3.01175        3.59231
C         -1.48096       -4.73140        3.82993
C         -1.10087       -2.40485        4.59679
C         -3.23198       -5.09358        0.77823
H          0.68899       -3.08754       -2.70359
H          1.70231       -3.91550       -1.51736
H          1.06243       -4.78662       -2.90830
H         -1.05365       -6.22031       -0.29454
H          0.03466       -6.52796       -1.63855
H          0.66048       -5.86108       -0.12937
H         -2.54622       -4.66801       -1.74218
H         -1.79495       -3.38023       -2.67360
H         -1.51265       -5.06517       -3.11223
H         -3.69795       -3.27992        4.57488
H         -3.54008       -1.96131        3.41571
H         -3.84608       -3.59721        2.84882
H         -0.41316       -4.92472        3.73286
H         -1.78097       -4.98596        4.84614
H         -2.00416       -5.40401        3.15487
H         -1.40207       -1.35968        4.54271
H         -1.36011       -2.76056        5.59373
H         -0.01717       -2.45596        4.49444
H         -3.36863       -5.79937       -0.04088
H         -3.84326       -5.42425        1.61779
H         -3.55566       -4.10141        0.46084
C          6.40650        1.70429        1.47766
C          5.56831        3.23465       -1.61969
C          3.24177        4.06430       -1.82399
C          4.47664        4.40760        0.32734
C          4.16896       -2.75411        0.23262
C          6.21010       -1.41034       -0.17699
C          5.25478       -1.56564        2.15176
H          5.43135        2.50947       -2.42116
H          5.90861        4.17032       -2.06258
H          6.36182        2.86995       -0.97210
H          2.96324        3.35235       -2.60060
H          2.33536        4.38974       -1.31577
H          3.66771        4.94131       -2.31078
H          5.20477        4.01543        1.03339
H          4.83938        5.37107       -0.02990
H          3.54654        4.57655        0.86951
H          3.80791       -2.66885       -0.79188
H          4.82769       -3.62069        0.28432
H          3.31843       -2.96061        0.88057
H          6.83655       -0.57323        0.12065
H          6.79696       -2.32041       -0.05527
H          5.97875       -1.29435       -1.23530
H          5.80110       -0.68795        2.48930
H          5.86662       -2.44343        2.35814
H          4.34564       -1.63980        2.74807
H          7.10953        0.98589        1.89883
H          6.91473        2.66393        1.38451
H          5.55023        1.80911        2.14512
