111
-148.55372733
P         -2.18952        2.10253        1.49317
P          0.17778        0.20552        0.60850
C         -1.07825        1.41404        2.74500
C         -0.05259        0.58031        2.35666
C         -2.39109        3.92840        1.71524
C         -1.96493        4.66616        0.46440
C         -1.24666        1.72688        4.07869
H         -2.03634        2.39903        4.37217
C         -0.39541        1.18485        5.02591
H         -0.52744        1.42597        6.06805
C          0.62296        0.33634        4.63642
H          1.28533       -0.08709        5.37344
C          0.79616        0.03524        3.29730
H          1.59053       -0.62045        2.97953
Pd        -1.40723        1.42754       -0.56735
Cl        -3.25527        2.22886       -1.55423
Cl        -0.49621        0.72744       -2.49624
C         -3.88858        4.08353        2.05509
C         -3.95195        1.55664        1.64617
H         -2.57533        4.36098       -0.38753
H         -2.07489        5.74722        0.57895
H         -0.92186        4.45682        0.21415
H         -4.26314        5.02880        1.63627
H         -4.01869        4.17131        3.14369
H         -4.15188        0.90523        0.78475
C         -4.72825        2.88411        1.53220
C         -4.19945        0.81948        2.94597
H         -1.75797        4.21621        2.56558
H         -5.67795        2.80475        2.08134
H         -5.00464        3.06443        0.48280
H         -3.51493       -0.02316        3.06591
H         -4.05243        1.48373        3.79887
H         -5.22190        0.43838        3.00248
C         -1.28391       -3.98525       -0.40968
C         -2.14000       -3.07814        0.26721
C         -1.64165       -1.82775        0.59881
C         -0.38604       -1.44428        0.20305
C          0.38929       -2.26728       -0.57140
C         -0.04065       -3.53507       -0.92130
O         -1.64845       -5.35153       -0.54123
C         -3.58695       -3.43291        0.64407
H         -2.23219       -1.12898        1.16588
H          1.34268       -1.90201       -0.90828
C          0.84939       -4.40702       -1.82017
C          4.38835        0.92373       -0.98130
C          4.15364       -0.14807       -0.08257
C          2.86450       -0.34108        0.38594
C          1.85232        0.52188        0.05212
C          2.10282        1.62666       -0.71913
C          3.36719        1.87673       -1.22525
O          5.62772        1.01833       -1.66846
C          5.26100       -1.11980        0.35514
H          2.62891       -1.19125        1.00214
H          1.28281        2.28452       -0.94888
C          3.59225        3.13827       -2.07276
C         -4.18346       -4.46732       -0.32818
C         -3.61833       -3.97688        2.08006
C         -4.48584       -2.17924        0.56455
C          1.68809       -3.52715       -2.77545
C          1.80405       -5.23103       -0.94321
C         -0.00095       -5.34131       -2.69988
C         -1.24481       -6.16174        0.55533
H         -4.11653       -4.11050       -1.35540
H         -3.65760       -5.41685       -0.27051
H         -5.23235       -4.65822       -0.10267
H         -4.63488       -4.23055        2.37957
H         -3.00572       -4.87079        2.17499
H         -3.23459       -3.23610        2.78125
H         -5.53456       -2.44336        0.69846
H         -4.23630       -1.46012        1.34095
H         -4.38353       -1.68916       -0.40343
H          2.43524       -2.94516       -2.23844
H          2.22223       -4.14207       -3.49939
H          1.04950       -2.83803       -3.32748
H          2.46795       -5.84129       -1.55499
H          2.41916       -4.57851       -0.32408
H          1.25406       -5.89468       -0.28001
H          0.62532       -5.91341       -3.38392
H         -0.56249       -6.05059       -2.09663
H         -0.71371       -4.76737       -3.29110
H         -0.63693       -6.98996        0.19121
H         -0.66774       -5.57389        1.27026
H         -2.12326       -6.57411        1.05117
C          5.65606        0.31812       -2.90611
C          4.98486       -1.65361        1.77922
C          5.30604       -2.31113       -0.61381
C          6.63089       -0.41849        0.39846
C          5.03623        3.65292       -1.93313
C          3.28078        2.82018       -3.54321
C          2.66002        4.28090       -1.60842
H          4.11122       -2.30319        1.80479
H          5.82879       -2.23938        2.14298
H          4.82262       -0.83181        2.47622
H          4.35513       -2.84264       -0.61421
H          5.50309       -1.98491       -1.63220
H          6.08589       -3.01694       -0.32905
H          7.40319       -1.08953        0.77363
H          6.93772       -0.08477       -0.58955
H          6.59442        0.45446        1.04929
H          5.75367        2.93207       -2.31698
H          5.17609        4.58226       -2.48471
H          5.27743        3.83943       -0.88719
H          2.25151        2.47913       -3.65290
H          3.41385        3.70117       -4.17047
H          3.93060        2.03547       -3.92301
H          1.61575        4.06519       -1.82946
H          2.90739        5.21247       -2.11691
H          2.75701        4.44892       -0.53614
H          6.44322       -0.43529       -2.88273
H          4.69571       -0.16464       -3.09205
H          5.87538        1.01438       -3.71539
