111
-148.55092427
P         -2.59853        1.99765        0.75452
P          0.16804        0.47534        0.40125
C         -1.47609        1.80622        2.17057
C         -0.25624        1.18796        2.00110
C         -3.62373        3.52996        0.95045
C         -3.54395        4.42214       -0.26821
C         -1.84348        2.26403        3.42040
H         -2.80673        2.72692        3.55756
C         -0.98240        2.11062        4.49330
H         -1.26973        2.46941        5.46818
C          0.24177        1.49513        4.31768
H          0.91077        1.37222        5.15346
C          0.60320        1.02635        3.06771
H          1.54630        0.52439        2.91711
Pd        -1.30223        1.47625       -1.09398
Cl        -2.96111        2.23807       -2.38658
Cl         0.07504        0.73474       -2.70983
C         -5.03506        2.96728        1.22085
C         -3.92814        0.71146        0.70595
H         -3.95686        3.91597       -1.14154
H         -4.11029        5.34584       -0.12789
H         -2.51018        4.68923       -0.49911
H         -5.78921        3.66135        0.82193
H         -5.21928        2.92185        2.30429
H         -3.76889        0.12205       -0.20770
C         -5.21903        1.54979        0.60900
C         -3.85832       -0.17817        1.92753
H         -3.23313        4.06148        1.82835
H         -6.04216        1.01617        1.10628
H         -5.52131        1.64643       -0.44426
H         -4.63423       -0.94727        1.90990
H         -2.88919       -0.67671        1.99604
H         -3.99126        0.40771        2.83900
C         -1.21042       -3.87250        0.28786
C         -0.96194       -3.24681        1.53861
C         -0.51680       -1.93504        1.53832
C         -0.38982       -1.22944        0.37029
C         -0.74283       -1.79416       -0.82619
C         -1.20144       -3.09663       -0.90129
O         -1.38340       -5.27860        0.21534
C         -1.16375       -3.93902        2.89750
H         -0.25800       -1.44778        2.46228
H         -0.64503       -1.20024       -1.71797
C         -1.69785       -3.59967       -2.26695
C          4.60282        0.74300       -0.60854
C          3.98427        1.79996        0.10717
C          2.63916        1.68481        0.41926
C          1.90819        0.60223        0.00397
C          2.47849       -0.37179       -0.77257
C          3.81297       -0.31007       -1.13593
O          6.01380        0.72451       -0.77135
C          4.75989        3.04341        0.56985
H          2.14130        2.44000        1.00237
H          1.85805       -1.18746       -1.10046
C          4.37571       -1.37891       -2.08610
C          0.20808       -4.26169        3.51218
C         -1.93540       -2.99794        3.84905
C         -1.99070       -5.23121        2.78000
C         -2.64691       -2.54632       -2.88199
C         -0.49628       -3.80314       -3.20465
C         -2.49235       -4.91205       -2.15515
C         -0.16059       -5.97118        0.02653
H          0.09646       -4.73823        4.48578
H          0.77659       -4.93427        2.87258
H          0.79693       -3.35500        3.64781
H         -2.13235       -3.48761        4.80241
H         -1.37811       -2.08733        4.06216
H         -2.89378       -2.71487        3.41535
H         -1.46059       -5.98782        2.20643
H         -2.20400       -5.65198        3.76237
H         -2.93881       -5.03639        2.27996
H         -3.46760       -2.32385       -2.20060
H         -2.13040       -1.61326       -3.10086
H         -3.07422       -2.90703       -3.81712
H         -0.82178       -4.15099       -4.18461
H          0.04958       -2.87085       -3.34536
H          0.19795       -4.53777       -2.80069
H         -1.85834       -5.72940       -1.81992
H         -3.30802       -4.80751       -1.44055
H         -2.91703       -5.19753       -3.11727
H          0.32413       -5.63197       -0.88771
H          0.50696       -5.78619        0.86664
H         -0.36037       -7.04045       -0.04607
C          6.70762        0.01861        0.24962
C          3.82140        4.26647        0.67853
C          5.37335        2.77404        1.95224
C          5.86351        3.41315       -0.43798
C          3.27371       -1.88558       -3.04552
C          5.50225       -0.80180       -2.96216
C          4.89570       -2.56936       -1.26657
H          4.39030        5.17354        0.88151
H          3.27188        4.41714       -0.25032
H          3.10312        4.15237        1.48912
H          4.59625        2.53889        2.67924
H          6.06195        1.93325        1.92080
H          5.92120        3.64429        2.31276
H          6.61585        2.63131       -0.50690
H          5.44174        3.55953       -1.43178
H          6.36997        4.33249       -0.14513
H          2.51614       -2.46361       -2.51858
H          2.78222       -1.05162       -3.54602
H          3.69535       -2.53547       -3.81190
H          5.14977        0.06874       -3.51438
H          6.35364       -0.49238       -2.36115
H          5.85691       -1.53950       -3.68149
H          5.29199       -3.34798       -1.91787
H          4.09486       -3.00441       -0.66896
H          5.68759       -2.26488       -0.58659
H          6.00591       -0.36865        0.98942
H          7.26567       -0.80754       -0.19055
H          7.41785        0.68662        0.73664
