111
-148.55527814
P         -2.56410        2.05865        0.89100
P          0.11780        0.42908        0.51159
C         -1.47452        1.78378        2.31259
C         -0.28968        1.10292        2.13438
C         -3.37027        3.72366        0.93265
C         -2.78213        4.63812       -0.11985
C         -1.82810        2.23389        3.56837
H         -2.76511        2.74831        3.70577
C         -0.98502        2.00748        4.64279
H         -1.25966        2.35847        5.62411
C          0.20535        1.32976        4.46012
H          0.86013        1.15168        5.29720
C          0.55241        0.87181        3.20172
H          1.47069        0.32806        3.04352
Pd        -1.31029        1.52013       -0.96062
Cl        -3.00565        2.04448       -2.32527
Cl         0.15330        0.91775       -2.56268
C         -4.86093        3.39143        0.72947
C         -4.05747        0.96725        0.89138
H         -2.91819        4.21701       -1.11742
H         -3.26052        5.62031       -0.10831
H         -1.70944        4.78055        0.03211
H         -5.09983        3.48581       -0.33881
H         -5.49290        4.13410        1.23975
H         -4.15508        0.58578       -0.13397
C         -5.19976        1.95042        1.20700
C         -3.91265       -0.17178        1.87684
H         -3.20044        4.12963        1.93795
H         -5.37300        1.95477        2.29201
H         -6.14182        1.59907        0.75909
H         -3.74632        0.20781        2.88668
H         -4.80801       -0.79730        1.89958
H         -3.06287       -0.80783        1.62117
C         -1.19945       -3.91377        0.13634
C         -1.11812       -3.32133        1.42331
C         -0.70442       -2.00268        1.51485
C         -0.45420       -1.26385        0.38883
C         -0.63819       -1.80029       -0.85743
C         -1.04713       -3.11088       -1.02253
O         -1.39095       -5.31545        0.01102
C         -1.43348       -4.09976        2.71009
H         -0.56012       -1.53520        2.47274
H         -0.43705       -1.17297       -1.70822
C         -1.27991       -3.63854       -2.44618
C          4.50692        0.73963       -0.65837
C          3.82222       -0.49519       -0.78868
C          2.48885       -0.54378       -0.42183
C          1.85839        0.54713        0.11618
C          2.54063        1.71473        0.33514
C          3.87992        1.83058       -0.00209
O          5.80260        0.89501       -1.21890
C          4.47910       -1.76053       -1.36194
H          1.91405       -1.44047       -0.57165
H          2.00467        2.54310        0.76563
C          4.61876        3.14075        0.31303
C         -1.94607       -3.14892        3.81576
C         -2.53990       -5.14235        2.46743
C         -0.15634       -4.78992        3.21220
C         -1.79158       -2.50558       -3.36629
C          0.04629       -4.16950       -3.01182
C         -2.34900       -4.74570       -2.46305
C         -0.18072       -6.06038       -0.04579
H         -2.79096       -2.56005        3.46061
H         -2.27659       -3.71328        4.68745
H         -1.16863       -2.46565        4.15420
H         -2.80938       -5.65060        3.39292
H         -3.43500       -4.66598        2.06877
H         -2.22090       -5.90082        1.75672
H          0.22733       -5.49238        2.47633
H          0.62532       -4.05677        3.41005
H         -0.34587       -5.33902        4.13417
H         -1.02636       -1.75173       -3.54453
H         -2.08388       -2.89933       -4.33935
H         -2.66019       -2.01367       -2.92932
H          0.79602       -3.37910       -3.04084
H          0.44131       -4.97704       -2.39979
H         -0.08468       -4.54720       -4.02548
H         -3.27959       -4.38638       -2.02503
H         -2.55746       -5.07369       -3.48110
H         -2.02896       -5.61625       -1.89637
H          0.67937       -5.39870        0.06508
H         -0.17296       -6.80381        0.75120
H         -0.11526       -6.58347       -0.99959
C          5.79805        1.35075       -2.56607
C          4.27551       -1.78974       -2.88445
C          5.97969       -1.81018       -1.02317
C          3.83798       -3.03127       -0.75656
C          6.10987        2.88411        0.59774
C          4.46405        4.10808       -0.87030
C          4.02940        3.80826        1.57657
H          3.21390       -1.78050       -3.13064
H          4.73153       -0.92482       -3.36000
H          4.71605       -2.68584       -3.32073
H          6.43120       -2.73616       -1.37841
H          6.51807       -0.98483       -1.48204
H          6.13180       -1.74990        0.05395
H          2.80857       -3.16234       -1.08690
H          4.38558       -3.92303       -1.06065
H          3.84610       -2.98872        0.33227
H          6.61879        2.48724       -0.27702
H          6.61808        3.80437        0.88467
H          6.22755        2.16482        1.40752
H          3.41186        4.31810       -1.06092
H          4.96670        5.05395       -0.67009
H          4.88686        3.68892       -1.78009
H          4.00726        3.10729        2.41064
H          3.01703        4.17147        1.40652
H          4.63024        4.66654        1.87655
H          6.34883        2.28853       -2.63692
H          6.29240        0.61714       -3.20263
H          4.77474        1.50226       -2.91211
