171
-217.83943183
P         -1.68977        0.67087        0.22337
P          1.47421       -0.18095       -0.24545
C         -0.89665        1.86838       -0.87201
C          0.66805       -0.76869       -1.74544
C         -0.21307        1.53352       -2.03484
C          0.44900        2.55172       -2.74674
C          0.38006        3.85659       -2.28858
C         -0.30979        4.17100       -1.13779
C         -0.93807        3.16820       -0.42541
C          0.84112       -2.06468       -2.16425
C          0.21976       -2.51178       -3.31333
C         -0.58093       -1.65205       -4.03640
C         -0.77503       -0.34196       -3.62884
C         -0.11465        0.11797       -2.47317
Cl         2.01205        0.92672        2.81092
Cl        -1.07625        0.23804        3.48744
C         -1.65524        0.56066       -4.42066
C          1.24381        2.25959       -3.97118
H         -0.35108        5.18997       -0.78920
H         -1.45967        3.39469        0.49296
H          1.47052       -2.72703       -1.59559
H          0.35703       -3.52937       -3.64085
H          0.88791        4.63004       -2.83992
H         -1.05885       -1.99516       -4.93805
C         -2.84635       -3.44585       -1.28037
C         -3.46973       -2.32493       -1.81317
C         -3.06419       -1.07779       -1.35409
C         -2.08216       -0.96993       -0.40025
C         -1.49083       -2.09243        0.13142
C         -1.86654       -3.35876       -0.29832
H         -3.15190       -4.41257       -1.63351
H         -3.52218       -0.17812       -1.72636
H         -0.74067       -1.98431        0.89439
C         -5.62465        2.53456        1.48907
C         -4.86072        1.89315        2.45653
C         -3.65247        1.33401        2.06369
C         -3.23510        1.41487        0.76023
C         -4.00327        2.05122       -0.18367
C         -5.21735        2.62927        0.16338
H         -6.55874        2.97367        1.78502
H         -3.01186        0.84539        2.77400
H         -3.64487        2.10867       -1.19833
C          3.81477       -3.66625        1.53305
C          2.81225       -3.09858        2.30811
C          2.08590       -2.04721        1.76618
C          2.37236       -1.56119        0.51190
C          3.38754       -2.12184       -0.22419
C          4.11993       -3.19582        0.26254
H          4.37151       -4.48992        1.93867
H          1.29784       -1.59767        2.33951
H          3.60990       -1.72450       -1.19903
C          4.56358        2.91919       -1.42820
C          4.40570        1.78552       -2.21608
C          3.44083        0.86005       -1.83486
C          2.68789        1.05933       -0.70324
C          2.85892        2.18551        0.05998
C          3.79542        3.14652       -0.29246
H          5.31844        3.63153       -1.70259
H          3.25849       -0.01866       -2.42868
H          2.27253        2.30635        0.95303
Pd         0.16146        0.46994        1.62485
C         -5.22735       -1.13778       -3.21912
C         -4.59976       -2.49302       -2.83949
C         -5.70535       -3.38172       -2.23812
C         -4.04175       -3.15197       -4.11260
H         -5.64471       -0.64415       -2.34190
H         -4.49124       -0.47459       -3.67150
H         -6.03496       -1.27233       -3.93852
H         -6.08838       -2.94656       -1.31521
H         -6.53912       -3.48947       -2.93171
H         -5.33384       -4.37967       -2.00903
H         -3.59889       -4.12304       -3.89406
H         -4.82859       -3.30088       -4.85187
H         -3.27276       -2.52656       -4.56289
C          0.26198       -4.64340        0.07900
C         -1.24958       -4.60415        0.35776
C         -1.87439       -5.90503       -0.18271
C         -1.49749       -4.54305        1.87645
H          0.75277       -3.75055        0.45977
H          0.72647       -5.50752        0.55336
H          0.45408       -4.70647       -0.99143
H         -1.70098       -6.00856       -1.25370
H         -1.43682       -6.77536        0.30629
H         -2.94863       -5.92962       -0.00045
H         -1.01987       -3.67087        2.31959
H         -2.56457       -4.48245        2.08927
H         -1.10517       -5.42983        2.37339
C         -4.36641        1.07170        4.81472
C         -5.35737        1.82859        3.90813
C         -6.71171        1.09733        3.95056
C         -5.52065        3.25915        4.45342
H         -3.39466        1.56463        4.83230
H         -4.73330        1.03046        5.84010
H         -4.22619        0.04646        4.47299
H         -6.61735        0.08994        3.54552
H         -7.07977        1.01704        4.97325
H         -7.46523        1.62376        3.36597
H         -4.57394        3.79730        4.40966
H         -6.25269        3.82244        3.87591
H         -5.85369        3.24552        5.49106
C         -6.37319        2.36724       -2.04751
C         -6.03885        3.35316       -0.91266
C         -5.21233        4.52571       -1.47313
C         -7.35856        3.91003       -0.34530
H         -6.93257        1.51445       -1.66344
H         -6.97692        2.84797       -2.81704
H         -5.46882        1.98972       -2.52318
H         -4.94814        5.22423       -0.67940
H         -4.28759        4.17520       -1.93037
H         -5.77337        5.07170       -2.23135
H         -7.93111        4.41500       -1.12325
H         -7.98105        3.11042        0.05589
H         -7.17065        4.63406        0.44731
C          2.11598       -5.09451        3.65888
C          2.55168       -3.62044        3.72877
C          1.44753       -2.81207        4.44015
C          3.84422       -3.49918        4.55747
H          1.91379       -5.48943        4.65432
H          1.20976       -5.19977        3.06436
H          2.88778       -5.71419        3.20377
H          1.71894       -1.75917        4.51502
H          0.49924       -2.88518        3.90981
H          1.28655       -3.18385        5.45178
H          4.18134       -2.46336        4.59211
H          3.68431       -3.83678        5.58129
H          4.64756       -4.09875        4.13130
C          4.58850       -4.32139       -1.92560
C          5.21821       -3.81017       -0.61589
C          5.91619       -4.99082        0.08546
C          6.27376       -2.73460       -0.93384
H          5.33933       -4.78612       -2.56434
H          3.81594       -5.06159       -1.71777
H          4.12968       -3.50922       -2.48852
H          6.69060       -5.41638       -0.55266
H          6.39198       -4.67069        1.01222
H          5.20620       -5.78477        0.31656
H          5.83511       -1.89820       -1.47633
H          6.71308       -2.34341       -0.01645
H          7.07700       -3.14414       -1.54607
C          5.33649        2.77836       -4.34074
C          5.33399        1.54565       -3.41633
C          4.88776        0.32307       -4.24299
C          6.75978        1.29227       -2.89448
H          5.69952        3.66569       -3.82417
H          5.98126        2.61363       -5.20392
H          4.33411        2.99090       -4.70952
H          4.93482       -0.59155       -3.65246
H          3.86813        0.44709       -4.60695
H          5.53436        0.18553       -5.10953
H          7.44935        1.10142       -3.71659
H          7.13162        2.15117       -2.33659
H          6.77901        0.42914       -2.22950
C          2.61681        5.14468        0.65421
C          3.95796        4.39054        0.59148
C          5.03109        5.34764        0.03889
C          4.37251        3.95263        2.00868
H          1.83134        4.52145        1.08019
H          2.70075        6.04103        1.26830
H          2.30017        5.44712       -0.34361
H          5.12464        6.23009        0.67176
H          6.00707        4.86407        0.00219
H          4.77417        5.68676       -0.96454
H          3.61677        3.31261        2.46244
H          5.30816        3.39472        1.98058
H          4.51237        4.81580        2.65902
H         -2.10281        1.32881       -3.78788
H          2.23019        2.71892       -3.90368
H         -2.46799        0.00486       -4.89016
H         -1.09329        1.05863       -5.21168
H          0.75056        2.65413       -4.86067
H          1.38947        1.18801       -4.11130
