171
-217.84366585
P         -1.62422        0.38607       -0.36326
P          1.59639       -0.36377       -0.31607
C         -0.89808        1.34941       -1.69141
C          0.90008       -1.34804       -1.64282
C         -0.08401        0.73102       -2.63416
C          0.55248        1.52999       -3.60384
C          0.32174        2.89563       -3.61440
C         -0.51534        3.48369       -2.68983
C         -1.11920        2.70454       -1.72311
C          1.12538       -2.70293       -1.64661
C          0.55920       -3.49764       -2.62326
C         -0.24453       -2.92485       -3.58608
C         -0.48322       -1.56007       -3.59889
C          0.11522       -0.74577       -2.61882
Cl         1.52148        0.38362        2.89430
Cl        -1.63953       -0.47355        2.82799
C         -1.34652       -0.97295       -4.65903
C          1.48076        0.94222       -4.60864
H         -0.69252        4.54649       -2.71551
H         -1.76898        3.15621       -0.99146
H          1.74961       -3.14167       -0.88536
H          0.74295       -4.55962       -2.62956
H          0.81126        3.50086       -4.35876
H         -0.69693       -3.54168       -4.34416
C         -3.95599       -3.21097       -1.79734
C         -2.91493       -3.40170       -0.89702
C         -2.20559       -2.28377       -0.47628
C         -2.52281       -1.04023       -0.96167
C         -3.54924       -0.86798       -1.85774
C         -4.29562       -1.95682       -2.29177
H         -4.52411       -4.06813       -2.10571
H         -1.40472       -2.36987        0.23762
H         -3.78033        0.12631       -2.20266
C         -4.26336        2.77572        2.45474
C         -4.80915        1.69018        1.78171
C         -3.99329        0.99798        0.89535
C         -2.69307        1.38914        0.68903
C         -2.17131        2.46472        1.36538
C         -2.94583        3.17659        2.27159
H         -4.88223        3.30660        3.15324
H         -4.35862        0.12866        0.37841
H         -1.14031        2.73279        1.20754
C          4.30505       -2.81363        2.37997
C          2.95365       -3.13269        2.32137
C          2.15080       -2.39842        1.45881
C          2.67690       -1.36969        0.71731
C          4.01097       -1.05751        0.80154
C          4.85753       -1.78378        1.62891
H          4.94891       -3.36999        3.03468
H          1.09918       -2.61619        1.37937
H          4.38499       -0.23018        0.22590
C          3.93642        3.22358       -1.75859
C          2.90749        3.42195       -0.84686
C          2.19307        2.30886       -0.42111
C          2.49096        1.06470       -0.91775
C          3.49945        0.88662       -1.83309
C          4.25189        1.97116       -2.26941
H          4.52364        4.06932       -2.06545
H          1.40500        2.39899        0.30623
H          3.70042       -0.10908       -2.19084
Pd        -0.03884        0.02691        1.32199
C         -2.37778       -5.76956       -1.54432
C         -2.61098       -4.80810       -0.36371
C         -3.80448       -5.29574        0.47652
C         -1.35081       -4.81454        0.52196
H         -1.56567       -5.41262       -2.17646
H         -2.11569       -6.76606       -1.18921
H         -3.26794       -5.86295       -2.16490
H         -3.61633       -6.28949        0.88253
H         -3.98906       -4.61880        1.31052
H         -4.71369       -5.34446       -0.12183
H         -1.12580       -5.82345        0.86741
H         -0.48647       -4.45109       -0.03261
H         -1.48604       -4.18807        1.40325
C         -5.01534       -1.03411       -4.52135
C         -5.48801       -1.73670       -3.23596
C         -6.53330       -0.85806       -2.52616
C         -6.15641       -3.06779       -3.63151
H         -4.29871       -1.65486       -5.05692
H         -5.85426       -0.84222       -5.19014
H         -4.54082       -0.07856       -4.30200
H         -7.40132       -0.69071       -3.16358
H         -6.87613       -1.33628       -1.60896
H         -6.11770        0.11489       -2.26619
H         -6.98735       -2.89451       -4.31529
H         -5.44848       -3.72781       -4.13264
H         -6.55314       -3.58381       -2.75741
C         -7.20726        2.43614        1.79655
C         -6.25349        1.25899        2.07296
C         -6.36294        0.83358        3.54834
C         -6.68005        0.07199        1.18843
H         -8.24362        2.14676        1.96998
H         -6.98803        3.28621        2.44133
H         -7.11831        2.76819        0.76229
H         -6.11751        1.65825        4.21651
H         -7.37311        0.50012        3.78519
H         -5.67667        0.01458        3.76304
H         -7.71144       -0.21428        1.39384
H         -6.61320        0.33412        0.13356
H         -6.05368       -0.80122        1.37009
C         -1.02254        3.88422        3.72073
C         -2.32346        4.35177        3.03808
C         -3.27108        4.88985        4.12763
C         -2.01710        5.48808        2.04764
H         -0.28359        3.55421        2.99272
H         -0.57575        4.68954        4.30328
H         -1.22052        3.04962        4.39293
H         -4.18866        5.28501        3.69237
H         -3.53372        4.10644        4.83837
H         -2.79877        5.69855        4.68525
H         -1.35048        5.14863        1.25707
H         -2.93265        5.84599        1.57705
H         -1.54301        6.33030        2.55130
C          1.06785       -3.73179        3.87156
C          2.33112       -4.25768        3.15981
C          3.30742       -4.77331        4.23485
C          1.95775       -5.42354        2.22914
H          1.30597       -2.86239        4.48395
H          0.29849       -3.43637        3.16005
H          0.63911       -4.49538        4.52014
H          4.18974       -5.22597        3.78318
H          3.62983       -3.96343        4.88909
H          2.83268       -5.53316        4.85554
H          1.48579       -6.23366        2.78477
H          1.26602       -5.09682        1.45472
H          2.84393       -5.82169        1.73526
C          6.76934       -0.33342        0.78353
C          6.35248       -1.45740        1.75282
C          7.18115       -2.71270        1.42210
C          6.65030       -1.00001        3.19189
H          6.23718        0.59236        1.00166
H          7.83615       -0.12616        0.86624
H          6.56608       -0.61513       -0.24945
H          6.95766       -3.06661        0.41579
H          8.24875       -2.50000        1.47556
H          6.96951       -3.52410        2.11728
H          6.41443       -1.78308        3.91163
H          7.70260       -0.74228        3.31026
H          6.05599       -0.12262        3.44640
C          1.36040        4.84933        0.57181
C          2.62117        4.83090       -0.31161
C          2.39872        5.79656       -1.49104
C          3.82014        5.30329        0.52924
H          1.49192        4.22569        1.45543
H          1.14005        5.86074        0.91289
H          0.49605        4.48740        0.01610
H          2.15066        6.79615       -1.13455
H          3.28883        5.87863       -2.11327
H          1.58054        5.45098       -2.12178
H          3.64360        6.29856        0.93675
H          3.99698        4.62302        1.36220
H          4.72971        5.34212       -0.06932
C          5.28748        2.77311       -4.42159
C          5.44290        1.81370       -3.22589
C          5.54784        0.37450       -3.76709
C          6.73935        2.14896       -2.46630
H          6.11696        2.66043       -5.11956
H          4.36477        2.57389       -4.96440
H          5.26750        3.81311       -4.09887
H          5.72047       -0.33763       -2.96041
H          4.63824        0.08612       -4.29339
H          6.37846        0.28410       -4.46696
H          6.72579        3.17447       -2.09854
H          6.86546        1.48922       -1.60867
H          7.61076        2.03530       -3.11090
H         -0.75042       -0.64246       -5.51034
H          1.70432       -0.10229       -4.38823
H         -1.90340       -0.11405       -4.28177
H         -2.06773       -1.70496       -5.02340
H          2.42658        1.48355       -4.61877
H          1.05485        0.99370       -5.61167
