111
-148.55477865
P         -2.52849        1.88475        0.73135
P          0.25517        0.38483        0.44985
C         -1.43413        1.73579        2.16900
C         -0.20730        1.12225        2.03260
C         -3.44192        3.49428        0.72177
C         -2.85830        4.46054       -0.28578
C         -1.83093        2.21591        3.40074
H         -2.79980        2.67557        3.50712
C         -0.99166        2.08688        4.49390
H         -1.30058        2.46250        5.45574
C          0.23740        1.47155        4.35520
H          0.88833        1.36505        5.20734
C          0.62727        0.98113        3.12215
H          1.57248        0.47456        3.00439
Pd        -1.24906        1.26156       -1.08115
Cl        -2.91736        1.96693       -2.40536
Cl         0.08063        0.58624       -2.76210
C         -4.89124        3.05899        0.43619
C         -3.94873        0.69697        0.74604
H         -3.40020        5.40914       -0.28958
H         -1.80754        4.67008       -0.07193
H         -2.91052        4.04884       -1.29438
H         -5.06281        3.09709       -0.64846
H         -5.60154        3.77708        0.87363
H         -3.97701        0.24596       -0.25505
C         -5.16668        1.61724        0.95235
C         -3.77265       -0.36656        1.80841
H         -3.36189        3.90441        1.73638
H         -5.40590        1.65194        2.02411
H         -6.05626        1.18943        0.46554
H         -4.62404       -1.05061        1.83476
H         -2.87150       -0.95687        1.63094
H         -3.67830        0.08550        2.79742
C         -1.36547       -3.87098        0.47501
C         -0.94413       -3.27236        1.69004
C         -0.43649       -1.98471        1.64466
C         -0.27244       -1.32958        0.45218
C         -0.57152       -1.95016       -0.73187
C         -1.08321       -3.23508       -0.76085
O         -2.11416       -5.07753        0.49991
C         -1.08284       -3.97093        3.05145
H         -0.19345       -1.46013        2.55172
H         -0.43292       -1.39378       -1.64179
C         -1.38399       -3.88312       -2.12066
C          4.61190        0.99315       -0.74428
C          3.87272       -0.08965       -1.28375
C          2.55396       -0.24407       -0.89025
C          1.98404        0.59329        0.03234
C          2.72096        1.58837        0.62090
C          4.05353        1.78136        0.29449
O          5.89244        1.31092       -1.27022
C          4.45760       -1.05434       -2.32667
H          1.93888       -1.01212       -1.32490
H          2.23531        2.22537        1.33930
C          4.86133        2.84565        1.05460
C         -2.44540       -3.61831        3.66775
C         -0.94284       -5.49742        2.90990
C          0.02990       -3.50468        4.01777
C         -0.37330       -3.40340       -3.18710
C         -1.26263       -5.41600       -2.04879
C         -2.79783       -3.48141       -2.56801
C         -3.52055       -4.88038        0.58162
H         -3.26328       -3.93659        3.02573
H         -2.57149       -4.09954        4.63724
H         -2.53641       -2.54196        3.81184
H          0.00300       -5.75330        2.43359
H         -0.97575       -5.98599        3.88340
H         -1.74402       -5.91525        2.30553
H          1.01285       -3.62362        3.56273
H         -0.09275       -2.46050        4.30162
H          0.01360       -4.08939        4.93726
H         -0.49063       -2.34428       -3.41069
H          0.64922       -3.57295       -2.85234
H         -0.51246       -3.94446       -4.12269
H         -2.00128       -5.84230       -1.37495
H         -1.41226       -5.86733       -3.02929
H         -0.27606       -5.70596       -1.68876
H         -2.88073       -2.39815       -2.65484
H         -3.03969       -3.91724       -3.53693
H         -3.54674       -3.81377       -1.85289
H         -3.75397       -3.81570        0.62429
H         -4.00416       -5.32267       -0.28916
H         -3.90777       -5.37319        1.47329
C          5.86378        2.26086       -2.32828
C          3.78331       -2.44143       -2.22785
C          4.20456       -0.48856       -3.73263
C          5.96493       -1.27055       -2.10216
C          4.34667        2.98307        2.50608
C          6.34831        2.45635        1.14448
C          4.71025        4.20178        0.34939
H          2.74096       -2.40292       -2.53912
H          4.28301       -3.16198       -2.87493
H          3.82441       -2.82202       -1.20763
H          4.68215        0.47989       -3.85959
H          4.59183       -1.15866       -4.49963
H          3.13691       -0.35576       -3.90669
H          6.52291       -0.34734       -2.23661
H          6.15438       -1.63129       -1.09176
H          6.36464       -2.00181       -2.80429
H          4.32347        2.01306        3.00213
H          4.99494        3.63974        3.08585
H          3.34567        3.41016        2.54180
H          6.90700        3.17732        1.74075
H          6.46071        1.47549        1.60523
H          6.80908        2.41666        0.16077
H          5.08045        4.15886       -0.67209
H          5.26376        4.97909        0.87559
H          3.66311        4.50086        0.30981
H          6.30506        1.82375       -3.22386
H          4.83741        2.56381       -2.53935
H          6.45205        3.13562       -2.05172
