171
-217.84524218
P         -1.62157        0.35810       -0.39839
P          1.60566       -0.40536       -0.26329
C         -0.86360        1.28086       -1.73534
C          0.93006       -1.41167       -1.58779
C         -0.04726        0.63337       -2.65580
C          0.58311        1.40012       -3.65494
C          0.34500        2.76328       -3.71371
C         -0.49117        3.37991       -2.80707
C         -1.08870        2.63315       -1.81078
C          1.15487       -2.76646       -1.54788
C          0.60316       -3.59197       -2.50696
C         -0.19058       -3.05032       -3.49511
C         -0.43294       -1.68757       -3.55051
C          0.15484       -0.84125       -2.59108
Cl         1.47234        0.30961        2.89040
Cl        -1.73799       -0.50152        2.76522
C         -1.29576       -1.14357       -4.63346
C          1.49248        0.77517       -4.65436
H         -0.67689        4.43938       -2.87414
H         -1.73703        3.10562       -1.09040
H          1.76659       -3.18233       -0.76397
H          0.78806       -4.65342       -2.47830
H          0.82501        3.34347       -4.48374
H         -0.63414       -3.69026       -4.23920
C         -4.00473       -3.18747       -1.88027
C         -2.98886       -3.39855       -0.95602
C         -2.27086       -2.29412       -0.51502
C         -2.55429       -1.04385       -1.00399
C         -3.55352       -0.85229       -1.92689
C         -4.31079       -1.92629       -2.37897
H         -4.57829       -4.03438       -2.20641
H         -1.48563       -2.39722        0.21391
H         -3.75081        0.14462       -2.28484
C         -4.21983        2.90632        2.31582
C         -4.81833        1.89706        1.57362
C         -4.01017        1.15017        0.72543
C         -2.66759        1.42072        0.61996
C         -2.09453        2.42632        1.36134
C         -2.86123        3.18184        2.23981
H         -4.82716        3.48222        2.98961
H         -4.41825        0.33268        0.15866
H         -1.03503        2.59441        1.27464
C          4.42766       -2.79431        2.36699
C          3.07845       -3.12470        2.36615
C          2.23276       -2.39927        1.53650
C          2.72571       -1.38460        0.75327
C          4.06205       -1.07029        0.77079
C          4.94538       -1.77649        1.57659
H          5.09232       -3.33394        3.01631
H          1.17604       -2.60298        1.51479
H          4.40875       -0.25516        0.16163
C          3.86066        3.28178       -1.59408
C          2.87340        3.41300       -0.62500
C          2.16906        2.27372       -0.25834
C          2.45147        1.06361       -0.84059
C          3.43169        0.94865       -1.79595
C          4.16201        2.06385       -2.19106
H          4.42835        4.14555       -1.88431
H          1.40572        2.32363        0.49931
H          3.63039       -0.02283       -2.21582
Pd        -0.08370       -0.06411        1.31544
C         -2.45065       -5.76454       -1.60713
C         -2.71617       -4.81264       -0.42581
C         -3.94293       -5.29750        0.36703
C         -1.48831       -4.83967        0.50448
H         -1.61035       -5.41205       -2.20384
H         -2.21551       -6.76824       -1.25344
H         -3.31763       -5.83878       -2.26219
H         -3.77738       -6.29620        0.77072
H         -4.15168       -4.62624        1.19991
H         -4.83067       -5.33384       -0.26352
H         -0.59818       -4.48534       -0.01434
H         -1.64848       -4.21560        1.38344
H         -1.28845       -5.85300        0.85246
C         -4.94722       -1.03830       -4.64844
C         -5.47391       -1.68403       -3.35441
C         -6.49591       -0.74230       -2.69319
C         -6.19083       -2.99677       -3.72548
H         -4.25888       -1.70866       -5.16072
H         -5.76594       -0.81715       -5.33308
H         -4.42447       -0.10498       -4.44308
H         -6.86545       -1.17075       -1.76185
H         -6.04944        0.22555       -2.46848
H         -7.35029       -0.57062       -3.34770
H         -5.50560       -3.69595       -4.20452
H         -6.61493       -3.47573       -2.84314
H         -7.00800       -2.80722       -4.42142
C         -7.12958        2.87583        1.47296
C         -6.31340        1.60111        1.75770
C         -6.55839        1.13717        3.20493
C         -6.79451        0.49483        0.80031
H         -6.94077        3.23521        0.46151
H         -8.19810        2.68355        1.56867
H         -6.87359        3.67609        2.16610
H         -7.60960        0.89938        3.36673
H         -5.97144        0.24600        3.42653
H         -6.27582        1.90894        3.92002
H         -7.85957        0.30407        0.93139
H         -6.63584        0.78810       -0.23638
H         -6.26776       -0.44181        0.98215
C         -2.82934        5.63324        2.75847
C         -2.25080        4.26103        3.14523
C         -0.71791        4.31477        3.00945
C         -2.58835        3.94494        4.61491
H         -2.40751        6.42375        3.37892
H         -2.60562        5.86507        1.71722
H         -3.91182        5.65303        2.88044
H         -0.26910        3.35250        3.25592
H         -0.42859        4.58520        1.99593
H         -0.29401        5.06059        3.68170
H         -2.13268        4.67368        5.28502
H         -3.66312        3.96042        4.79028
H         -2.21823        2.95692        4.88826
C          1.05056       -4.47151        3.10296
C          2.55720       -4.22079        3.30560
C          2.78742       -3.78191        4.76288
C          3.30901       -5.53599        3.02960
H          0.69606       -5.26150        3.76479
H          0.46918       -3.57553        3.32000
H          0.84473       -4.78054        2.07894
H          3.84719       -3.63534        4.96831
H          2.27488       -2.84144        4.96477
H          2.41092       -4.52959        5.46067
H          4.37686       -5.43108        3.21700
H          2.93746       -6.33815        3.66704
H          3.17924       -5.84226        1.99169
C          7.26452       -2.69442        1.29275
C          6.44167       -1.43932        1.63787
C          6.79214       -0.96038        3.05808
C          6.81319       -0.32569        0.63859
H          8.33219       -2.47582        1.30447
H          7.08237       -3.49775        2.00549
H          7.00623       -3.06238        0.29991
H          6.58985       -1.73489        3.79704
H          7.84649       -0.69450        3.13186
H          6.20240       -0.08321        3.32376
H          6.57420       -0.62232       -0.38253
H          6.28185        0.59875        0.86432
H          7.88061       -0.10917        0.67897
C          3.52812        5.86266       -0.37491
C          2.55062        4.75120        0.05353
C          2.65130        4.58374        1.58196
C          1.12515        5.17752       -0.33641
H          3.29757        6.79733        0.13623
H          4.55603        5.59590       -0.12973
H          3.46508        6.05089       -1.44649
H          3.65522        4.27117        1.86831
H          2.43057        5.52060        2.09313
H          1.95415        3.83231        1.94860
H          0.83497        6.09508        0.17507
H          1.06047        5.35496       -1.40937
H          0.40130        4.40412       -0.08472
C          5.08965        2.97598       -4.34566
C          5.31902        1.97509       -3.19712
C          5.44388        0.56074       -3.79668
C          6.63604        2.31634       -2.47582
H          4.14460        2.78080       -4.85008
H          5.06667        4.00202       -3.98095
H          5.88613        2.90652       -5.08638
H          5.65807       -0.17637       -3.02307
H          4.52791        0.26727       -4.30810
H          6.25564        0.51900       -4.52278
H          6.61273        3.32676       -2.06902
H          6.81251        1.62842       -1.64971
H          7.48361        2.24950       -3.15768
H         -2.07756       -1.85613       -4.89711
H          1.80091       -0.22455       -4.34579
H         -0.71387       -0.94139       -5.53337
H         -1.78007       -0.21576       -4.32580
H          2.39486        1.37263       -4.78162
H          1.00680        0.69541       -5.62780
