58
-89.86653387
P          1.57735        0.04474        0.83937
C          2.85347        1.31177        0.85723
C          2.64719        2.52691        0.24454
C          3.63368        3.49536        0.28606
C          4.81913        3.24255        0.94733
C          5.01918        2.02593        1.56893
C          4.03042        1.05905        1.52557
H          4.17088        0.10579        2.01078
H          1.71906        2.71287       -0.27109
C          2.22775       -1.52530        0.24983
C          1.46390       -2.66160        0.38431
C          1.93448       -3.87093       -0.09341
C          3.16804       -3.93290       -0.71032
C          3.92681       -2.78834       -0.85604
C          3.45170       -1.58083       -0.37710
H          4.02475       -0.67683       -0.50348
H          0.48829       -2.59501        0.83484
C          0.92130       -0.09952        2.54803
C          0.02450        1.09379        2.85498
C         -1.44012        0.87282        2.50490
P         -1.75258        0.23706        0.79798
C         -1.84464       -1.56237        0.71811
C         -1.92635       -2.12870       -0.53430
C         -1.95984       -3.50354       -0.67472
C         -1.91277       -4.30698        0.44656
C         -1.83904       -3.73796        1.70245
C         -1.80722       -2.36214        1.83856
H         -1.75641       -1.91769        2.81793
H         -1.95385       -1.48360       -1.39870
C         -3.28152        0.97662        0.21906
C         -3.31604        2.32863       -0.03351
C         -4.48585        2.91259       -0.48656
C         -5.61159        2.13668       -0.68141
C         -5.57136        0.78013       -0.42558
C         -4.40029        0.19903        0.02626
H         -4.35192       -0.85919        0.22590
H         -2.42532        2.91909        0.11469
Pd        -0.03598        0.48031       -0.76187
Cl         1.65414        0.79001       -2.20702
Cl        -1.64480        0.79923       -2.29725
H         -1.90247        0.16533        3.19466
H         -2.00670        1.80236        2.60218
H          0.10542        1.36580        3.91946
H          0.40746        1.96782        2.30772
H          0.38791       -1.04335        2.66062
H          1.79158       -0.14188        3.20755
H          3.47696        4.44451       -0.19960
H          5.94299        1.82905        2.08763
H          1.33357       -4.75965        0.00778
H          4.88476       -2.83342       -1.34753
H         -2.01684       -3.94433       -1.65632
H         -1.80596       -4.36600        2.57763
H         -4.51574        3.97020       -0.69098
H         -6.44890        0.17415       -0.58038
H          5.58900        3.99624        0.97899
H          3.53539       -4.87395       -1.08606
H         -1.93531       -5.37945        0.34162
H         -6.52253        2.59029       -1.03659
