58
-89.85790928
P          1.70942       -0.24712        0.65609
C          2.42494        1.36756        0.96034
C          2.96451        1.69469        2.18325
C          3.51470        2.94951        2.37423
C          3.52797        3.86201        1.33715
C          3.00132        3.52190        0.10658
C          2.45226        2.26679       -0.08125
H          2.06739        1.96586       -1.04313
H          2.96509        0.96621        2.97778
C          2.90647       -1.36570       -0.07240
C          4.20809       -0.95959       -0.25704
C          5.12069       -1.82154       -0.83799
C          4.72010       -3.08315       -1.23212
C          3.41136       -3.48427       -1.04836
C          2.50067       -2.62019       -0.46655
H          1.47249       -2.91516       -0.32620
H          4.50235        0.03172        0.04772
C          0.92080       -1.03765        2.11769
C          0.11409       -0.08834        2.99184
C         -0.74332        0.90472        2.22065
P         -1.64638        0.19344        0.78392
C         -2.37123       -1.42002        1.07594
C         -2.82184       -1.78846        2.32288
C         -3.38187       -3.04018        2.50547
C         -3.49435       -3.90807        1.43664
C         -3.05764       -3.52592        0.18344
C         -2.49837       -2.27395        0.00392
H         -2.18111       -1.94164       -0.97217
H         -2.74624       -1.09398        3.14379
C         -2.88105        1.36520        0.21952
C         -4.19661        0.97934        0.10228
C         -5.13988        1.88326       -0.35202
C         -4.75596        3.16658       -0.68823
C         -3.43338        3.54742       -0.57310
C         -2.49194        2.64117       -0.11811
H         -1.45307        2.91979       -0.03482
H         -4.47836       -0.02871        0.36024
Pd        -0.02608       -0.03878       -0.86751
Cl         1.50805       -0.03587       -2.51051
Cl        -1.68308        0.30215       -2.35043
H         -1.47978        1.38654        2.86816
H         -0.12588        1.70376        1.80444
H         -0.51986       -0.67758        3.67043
H          0.79033        0.46602        3.65901
H          0.28057       -1.82295        1.70953
H          1.70557       -1.54065        2.68767
H          3.93518        3.21293        3.33086
H          3.02324        4.22823       -0.70691
H          6.14057       -1.50673       -0.98620
H          3.09751       -4.46644       -1.36155
H         -3.73242       -3.33597        3.48063
H         -3.15657       -4.19740       -0.65353
H         -6.17085        1.58440       -0.44715
H         -3.13294        4.54678       -0.84185
H          3.95745        4.83926        1.48640
H          5.42937       -3.75475       -1.68775
H         -3.93075       -4.88321        1.57948
H         -5.48937        3.87113       -1.04526
