59
-75.80377457
Cl         1.75663        0.30738        2.36226
P          1.63166       -0.02088       -0.87561
P         -1.53268       -0.15134       -0.73272
C          0.62657        0.00915       -2.42756
H          0.40557        1.05134       -2.66767
H          1.23368       -0.38653       -3.24761
C         -0.64724       -0.76662       -2.23271
H         -0.43981       -1.82928       -2.09226
H         -1.31915       -0.67976       -3.09198
C          2.88621       -1.39145       -0.89725
H          2.89424       -1.78273       -1.92176
C          2.77449        1.43325       -0.68998
H          2.70407        1.73140        0.36347
C         -3.09840       -1.08865       -0.41483
H         -3.37760       -0.87134        0.62371
C         -2.31146        1.48903       -1.10587
H         -1.78852        1.90011       -1.97730
C          4.21074       -0.67213       -0.58468
H          4.41268       -0.75917        0.49186
H          5.05032       -1.17977       -1.08341
C          4.15825        0.82677       -0.97516
H          4.37879        0.93561       -2.04612
H          4.94137        1.39746       -0.45285
C         -4.07015       -0.38289       -1.37552
H         -3.95884       -0.83016       -2.37380
H         -5.11289       -0.57759       -1.07980
C         -3.78216        1.14472       -1.44654
H         -4.43794        1.66491       -0.73547
H         -4.05336        1.54480       -2.43458
C          2.56685       -2.50947        0.09008
H          2.39805       -2.06761        1.08093
H          3.45365       -3.14806        0.20658
C          2.43441        2.62081       -1.58477
H          3.27578        3.32764       -1.57308
H          2.36639        2.27561       -2.62433
C         -2.96993       -2.59545       -0.61067
H         -3.97150       -3.03003       -0.73543
H         -2.45276       -2.79083       -1.55832
C         -2.16839        2.41650        0.09713
H         -2.73845        1.99356        0.93570
H         -1.12566        2.41394        0.44157
C          1.37610       -3.35435       -0.32578
H          1.54664       -3.83213       -1.29243
H          0.48191       -2.74166       -0.42498
H          1.15698       -4.14234        0.39842
C          1.15915        3.33446       -1.17025
H          1.23383        3.71721       -0.15054
H          0.30600        2.65835       -1.19535
H          0.92809        4.17895       -1.82353
C         -2.25429       -3.27399        0.54790
H         -2.83142       -3.18896        1.47072
H         -1.28824       -2.80915        0.74377
H         -2.08302       -4.33682        0.36305
C         -2.61840        3.84191       -0.18910
H         -3.66747        3.87752       -0.48751
H         -2.50366        4.48987        0.68281
H         -2.03875        4.28147       -1.00306
Cl        -1.47070       -0.28523        2.44392
Pd         0.12797       -0.10260        0.88014
