105
-153.06996372
Cl         0.00289        1.88062        3.04895
Pd        -0.61728        1.10753        1.02744
P         -1.26623        0.50471       -1.14130
N         -0.96052       -1.05774       -1.88517
C          0.07080       -1.96220       -1.61353
C          0.31987       -2.46935       -0.31057
C          1.34438       -3.41978       -0.12359
C          1.56959       -3.98726        1.25798
C          2.44819       -5.24723        1.29609
C          3.66779       -5.09255        0.38330
C          3.22989       -4.85141       -1.06900
C          2.11011       -3.85068       -1.21032
C          1.82582       -3.36363       -2.47958
C          0.82470       -2.45033       -2.68080
H          0.62023       -2.08195       -3.67092
H          2.40972       -3.71297       -3.31431
H          4.08285       -4.51431       -1.67195
H          4.27334       -4.24494        0.72781
H          2.75898       -5.47626        2.32525
H          2.02234       -3.20728        1.88075
C         -0.61581       -2.18667        0.80390
C         -0.13518       -1.60793        2.01246
C         -1.00758       -1.52182        3.10255
C         -2.30693       -1.94684        3.00249
C         -2.79845       -2.50289        1.82779
C         -4.23363       -2.97551        1.81544
C         -4.74340       -3.45601        0.44581
C         -3.65379       -4.21836       -0.31282
C         -2.42370       -3.32557       -0.52787
C         -1.94751       -2.63955        0.72867
H         -1.60025       -3.91525       -0.94976
H         -4.03574       -4.59867       -1.27086
H         -5.05988       -2.59347       -0.15325
H         -4.87085       -2.16573        2.19311
H         -2.96698       -1.85369        3.84833
H         -0.65404       -1.07425        4.01482
N          1.14297       -1.03950        2.11622
P          1.55669        0.17321        0.90462
C          2.65951       -0.39655       -0.37971
C          2.49961        0.08721       -1.65344
C          3.39000       -0.28346       -2.64422
C          4.45654       -1.12432       -2.35429
C          4.61070       -1.58582       -1.05332
C          3.71665       -1.21503       -0.06481
H          3.83614       -1.55791        0.95060
H          5.43328       -2.23982       -0.81973
C          5.39038       -1.55999       -3.42871
H          3.25757        0.07541       -3.65050
H          1.67555        0.74634       -1.86419
C          2.40096        1.59475        1.60771
C          3.19835        1.45917        2.71835
C          3.85196        2.56535        3.23043
C          3.70947        3.81074        2.63273
C          2.91661        3.92077        1.49827
C          2.26447        2.81405        0.98638
H          1.64423        2.89681        0.10717
H          2.81135        4.87884        1.01858
C          4.42769        4.99811        3.17280
H          4.47841        2.46731        4.10051
H          3.31310        0.49065        3.17721
H          1.33790       -0.59351        3.00326
H         -1.24748       -0.94689       -2.84916
C         -0.53211        1.83785       -2.09287
C         -0.55359        3.11204       -1.57671
C          0.04444        4.14779       -2.26885
C          0.66615        3.91376       -3.48777
C          0.65169        2.62671       -4.00856
C          0.05308        1.59257       -3.31267
H          0.05937        0.59077       -3.70866
H          1.11678        2.43859       -4.96120
C          1.29587        5.03133       -4.24392
H          0.02921        5.14636       -1.86666
H         -1.05479        3.29037       -0.63866
C         -3.04966        0.69779       -1.19196
C         -3.62950        1.49052       -2.15379
C         -5.00426        1.63938       -2.18485
C         -5.80625        0.99195       -1.25463
C         -5.20050        0.20240       -0.28723
C         -3.82630        0.05021       -0.26359
H         -3.34980       -0.55828        0.48648
H         -5.81163       -0.28388        0.45370
C         -7.28353        1.17793       -1.26374
H         -5.46277        2.26664       -2.93010
H         -3.00489        1.99554       -2.87297
Cl        -2.49377        2.35237        1.07966
H          2.90914       -5.79820       -1.51970
H          1.85791       -6.11205        0.96805
H          4.32360       -5.97183        0.45496
H          0.59463       -4.19775        1.71546
H         -3.36254       -5.10579        0.26298
H         -2.65257       -2.55939       -1.27738
H         -4.33265       -3.78688        2.54651
H         -5.64327       -4.07668        0.56041
H          5.01599       -2.45570       -3.92633
H          5.51259       -0.78159       -4.18318
H          6.37781       -1.78743       -3.02463
H          4.57517        4.91247        4.25027
H          5.40782        5.10378        2.70578
H          3.86582        5.91480        2.98839
H          1.69170        5.79008       -3.56735
H          2.12260        4.67382       -4.85938
H          0.56983        5.51183       -4.90112
H         -7.65009        1.37413       -2.27230
H         -7.79434        0.28798       -0.89331
H         -7.57100        2.01891       -0.63131
