171
-217.84024870
P         -1.54262        0.39131       -0.37249
P          1.63413       -0.46512        0.12089
C         -0.67666        1.24523       -1.69116
C          0.89810       -1.46987       -1.18781
C          0.18653        0.52857       -2.51056
C          0.90221        1.21385       -3.51067
C          0.69864        2.57562       -3.66758
C         -0.18228        3.26360       -2.85774
C         -0.86735        2.59313       -1.86241
C          0.91050       -2.82632       -0.96336
C          0.36416       -3.69381       -1.88855
C         -0.21621       -3.18988       -3.03210
C         -0.26653       -1.82577       -3.26582
C          0.30732       -0.94201       -2.33107
Cl         0.98959        0.18837        3.36197
Cl        -2.02107       -0.52893        2.79605
C         -0.94729       -1.32918       -4.49359
C          1.84203        0.49426       -4.41318
H         -0.33691        4.32021       -3.00246
H         -1.55858        3.11612       -1.22093
H          1.34976       -3.20851       -0.05407
H          0.38974       -4.75694       -1.71408
H          1.23739        3.09792       -4.44000
H         -0.65722       -3.85921       -3.75152
C         -4.03086       -3.10339       -1.79868
C         -3.21275       -3.27165       -0.68867
C         -2.45235       -2.18627       -0.27435
C         -2.48647       -1.00667       -0.97399
C         -3.28361       -0.86217       -2.08319
C         -4.08636       -1.91258       -2.51268
H         -4.66315       -3.91763       -2.10098
H         -1.84308       -2.24382        0.61047
H         -3.28522        0.08405       -2.59718
C         -4.52079        3.01739        1.84260
C         -4.97120        2.13312        0.87044
C         -4.02371        1.37745        0.19562
C         -2.68418        1.51437        0.46420
C         -2.25604        2.41016        1.41386
C         -3.17054        3.16115        2.14254
H         -5.24000        3.59565        2.38965
H         -4.34169        0.65092       -0.53081
H         -1.20346        2.49589        1.61906
C          5.12398       -2.91900        1.68638
C          4.33526       -2.23871        2.60544
C          3.27060       -1.49278        2.11977
C          3.00866       -1.43235        0.77532
C          3.80583       -2.10510       -0.11887
C          4.87997       -2.86834        0.31927
H          5.94593       -3.50441        2.05330
H          2.62759       -0.95194        2.78842
H          3.57464       -2.05192       -1.16978
C          3.53823        3.48304       -1.02424
C          2.50181        3.48859       -0.09931
C          1.89658        2.27559        0.20261
C          2.33142        1.11159       -0.38349
C          3.37430        1.12223       -1.27764
C          3.99936        2.31595       -1.61902
H          4.01787        4.40866       -1.28063
H          1.09214        2.23355        0.91510
H          3.70624        0.18832       -1.69583
Pd        -0.23090       -0.10491        1.49933
C         -2.90827       -5.75459       -0.91396
C         -3.20376       -4.60586        0.06887
C         -4.58014       -4.82060        0.72229
C         -2.12515       -4.62270        1.17072
H         -2.85678       -6.71011       -0.39231
H         -3.68116       -5.83556       -1.67706
H         -1.95600       -5.59405       -1.41823
H         -4.60616       -5.75636        1.28032
H         -4.80852       -4.00841        1.41228
H         -5.37035       -4.85444       -0.02706
H         -2.09908       -5.58987        1.67231
H         -1.13580       -4.43922        0.75218
H         -2.32468       -3.86618        1.92925
C         -6.51008       -1.78882       -3.10821
C         -5.07875       -1.76114       -3.67456
C         -4.89768       -2.91835       -4.67572
C         -4.87485       -0.43123       -4.42690
H         -7.24745       -1.67553       -3.90270
H         -6.71107       -2.72858       -2.59474
H         -6.65715       -0.97999       -2.39279
H         -5.10847       -3.88230       -4.21482
H         -5.57135       -2.80561       -5.52504
H         -3.87823       -2.94627       -5.05803
H         -5.56309       -0.35396       -5.26849
H         -5.05905        0.42257       -3.77541
H         -3.86169       -0.35283       -4.81957
C         -6.83649        0.46121        0.86273
C         -6.45790        1.92170        0.55085
C         -6.70349        2.21146       -0.94182
C         -7.35954        2.85159        1.38475
H         -6.25759       -0.23646        0.25846
H         -6.64649        0.23049        1.91072
H         -7.89216        0.27969        0.66195
H         -7.75497        2.08070       -1.19697
H         -6.42076        3.23502       -1.18683
H         -6.12212        1.54355       -1.57610
H         -8.40947        2.69616        1.13674
H         -7.24175        2.65980        2.45108
H         -7.12647        3.89884        1.19308
C         -1.79758        3.24311        4.24138
C         -2.67291        4.06933        3.27738
C         -3.84095        4.67129        4.08257
C         -1.84513        5.21893        2.68260
H         -1.46091        3.85042        5.08118
H         -2.35713        2.39637        4.63808
H         -0.91284        2.85026        3.74253
H         -4.46393        5.30934        3.45616
H         -4.46582        3.88754        4.51047
H         -3.46874        5.28292        4.90437
H         -1.49258        5.89350        3.46267
H         -0.97520        4.83353        2.15676
H         -2.43789        5.79771        1.97446
C          4.55105       -3.80669        4.55050
C          4.64888       -2.33592        4.10562
C          3.66069       -1.50544        4.94852
C          6.07184       -1.80735        4.36348
H          4.74929       -3.90555        5.61762
H          3.55457       -4.20198        4.35411
H          5.26902       -4.43026        4.01911
H          3.70231       -0.45100        4.67662
H          2.63762       -1.85544        4.81286
H          3.89695       -1.58204        6.00964
H          6.31539       -1.84479        5.42513
H          6.81669       -2.39673        3.83011
H          6.16341       -0.77310        4.03224
C          6.28760       -2.66066       -1.74890
C          5.72024       -3.64215       -0.70643
C          4.82397       -4.67965       -1.40784
C          6.89790       -4.37900       -0.04011
H          6.88876       -1.89085       -1.26544
H          6.91930       -3.17932       -2.46983
H          5.49018       -2.16728       -2.30306
H          4.39813       -5.37312       -0.68292
H          3.99938       -4.19846       -1.93294
H          5.39207       -5.25797       -2.13622
H          7.49248       -4.90949       -0.78381
H          7.55777       -3.67930        0.47259
H          6.54360       -5.11424        0.68209
C          1.89750        4.54623        2.10176
C          2.01954        4.77725        0.58205
C          0.65292        5.16659       -0.00217
C          3.00198        5.94350        0.35584
H          1.59147        5.45946        2.61177
H          1.16388        3.77662        2.33510
H          2.85345        4.23162        2.51975
H         -0.07199        4.36670        0.13912
H          0.26540        6.06858        0.47095
H          0.73454        5.35745       -1.07159
H          4.00093        5.68608        0.70762
H          3.06387        6.20998       -0.69893
H          2.67740        6.83215        0.89714
C          4.87425        3.30235       -3.75730
C          5.20141        2.37433       -2.57289
C          5.56234        0.98007       -3.12052
C          6.42273        2.92203       -1.81064
H          3.99070        2.95472       -4.29028
H          4.68031        4.32030       -3.42154
H          5.70251        3.33802       -4.46479
H          5.84098        0.30602       -2.31128
H          4.72839        0.53942       -3.66471
H          6.40840        1.03969       -3.80502
H          6.23993        3.93027       -1.44085
H          6.65681        2.28927       -0.95465
H          7.30108        2.95730       -2.45491
H         -1.17427       -0.26462       -4.42499
H          1.34725        0.20574       -5.34124
H         -1.88889       -1.85541       -4.65066
H         -0.32602       -1.48901       -5.37586
H          2.23032       -0.40940       -3.94081
H          2.69264        1.12287       -4.67604
