87
-129.18320394
P         -1.51255       -0.26140       -0.41950
P          1.70423        0.29774        0.23619
C         -1.08025        0.97807       -1.64569
C          1.51702       -0.80526       -1.18801
C          0.01301        0.73878       -2.46798
C          0.36079        1.70289       -3.43508
C         -0.41175        2.84737       -3.55016
C         -1.49958        3.06033       -2.72842
C         -1.83151        2.12040       -1.77259
C          2.13874       -2.02153       -1.02695
C          2.03997       -2.99355       -2.00365
C          1.29899       -2.74452       -3.13780
C          0.64644       -1.53635       -3.31345
C          0.76273       -0.53681       -2.32808
Cl         0.94378       -0.26159        3.39736
Cl        -1.70514       -1.84445        2.38383
H         -2.08567        3.95917       -2.82793
H         -2.68124        2.27435       -1.12865
H          2.69860       -2.21199       -0.12327
H          2.53076       -3.94403       -1.87315
H         -0.14614        3.58239       -4.29090
H          1.20646       -3.50279       -3.89681
C         -2.44704       -4.17359       -2.53357
C         -1.61975       -4.18991       -1.41904
C         -1.36545       -2.99105       -0.76469
C         -1.89995       -1.81356       -1.23251
C         -2.71352       -1.80398       -2.34118
C         -2.99282       -2.99096       -2.99288
H         -2.66160       -5.09910       -3.04015
C         -1.04338       -5.46363       -0.90984
H         -0.74509       -2.98308        0.11520
H         -3.11756       -0.86823       -2.69474
H         -3.63081       -2.99120       -3.86140
C         -5.15686        1.11364        1.94981
C         -5.22194       -0.03677        1.18954
C         -4.11829       -0.44751        0.46661
C         -2.96172        0.29567        0.50251
C         -2.89496        1.44131        1.26087
C         -3.99090        1.86504        2.00225
H         -6.01512        1.43547        2.51468
H         -6.12961       -0.61720        1.16353
H         -4.15165       -1.35132       -0.11933
H         -1.98561        2.01584        1.27637
C         -3.91454        3.10820        2.81670
C          6.06053       -0.02461        1.53071
C          5.73672        0.17447        0.20314
C          4.41056        0.27111       -0.17664
C          3.41953        0.16361        0.77188
C          3.74318       -0.03323        2.09269
C          5.06848       -0.12385        2.49590
H          7.09200       -0.10632        1.82871
H          6.51585        0.25234       -0.53735
H          4.14242        0.41887       -1.21102
H          2.95562       -0.12219        2.81907
C          5.41157       -0.36523        3.92399
C          0.79391        4.72012       -0.29573
C          1.65850        4.09195       -1.17006
C          1.94488        2.74926       -1.01028
C          1.35486        2.04546        0.01250
C          0.52417        2.67777        0.90927
C          0.22574        4.02727        0.76411
H          0.55930        5.76299       -0.42488
H          2.10268        4.64430       -1.98183
H          2.61374        2.24245       -1.68672
H          0.13976        2.12876        1.75214
C         -0.70100        4.71077        1.70601
Pd        -0.12628       -0.54913        1.45348
C          1.54106        1.52249       -4.32458
C         -0.17736       -1.33315       -4.53797
H          2.17819        0.70609       -3.98241
H          1.22827        1.30138       -5.34580
H          2.15067        2.42694       -4.34938
H          0.45455       -1.12231       -5.40150
H         -0.76509       -2.22437       -4.76247
H         -0.87531       -0.50396       -4.41837
H         -1.70408       -5.91926       -0.17107
H         -0.89457       -6.18040       -1.71868
H         -0.07537       -5.29343       -0.43608
H         -2.98149        3.14693        3.38048
H         -3.96452        3.99283        2.18045
H         -4.73513        3.16405        3.53326
H          6.35496        0.11434        4.18882
H          4.64055        0.03195        4.58582
H          5.50778       -1.43332        4.12366
H         -1.70354        4.77643        1.28126
H         -0.76806        4.17349        2.65295
H         -0.36083        5.72402        1.92434
