64
-97.21539973
Cl        -1.62196       -1.33411       -2.55200
Cl         1.54561       -1.46255       -2.93802
P          1.92129       -0.63559        0.25266
C          2.11359       -2.31124        1.01862
C          3.70562       -0.25181       -0.09592
P         -1.25904       -0.11012        0.43839
C          1.28418        0.59943        1.43847
C         -0.13938        0.85124        1.52484
C         -0.33953        1.95678        2.45111
C          0.96385        2.38800        2.92552
C          1.97065        1.54733        2.30204
H         -1.30197        2.35220        2.78138
H          1.15232        3.18753        3.64547
Pd         0.16555       -0.92184       -1.26182
H          3.05067        1.61095        2.44974
C         -5.01019        2.15204       -0.85796
C         -4.04631        2.80551       -0.11699
C         -2.90666        2.13039        0.27839
C         -2.72583        0.81073       -0.07073
C         -3.69023        0.15812       -0.80468
C         -4.83419        0.82689       -1.20175
H         -5.89951        2.67615       -1.16810
H         -4.18080        3.84016        0.15305
H         -2.15100        2.63598        0.85229
H         -3.54081       -0.87459       -1.07427
H         -5.58397        0.31392       -1.78146
C         -2.60863       -3.91959        2.51339
C         -2.37091       -2.77769        3.25379
C         -1.96831       -1.61612        2.61896
C         -1.80452       -1.60889        1.25313
C         -2.04759       -2.74090        0.51065
C         -2.44978       -3.90322        1.14134
H         -2.92184       -4.82495        3.00732
H         -2.49709       -2.79069        4.32394
H         -1.77333       -0.71629        3.18076
H         -1.93094       -2.70287       -0.56046
H         -2.64013       -4.79224        0.56282
C          4.04054       -0.33475       -1.56935
H          3.89362        0.76066        0.28480
C          4.44892       -1.30906        0.74411
H          4.65760       -0.91141        1.74816
C          3.61720       -2.61346        0.86890
H          5.43130       -1.51591        0.29490
C          1.64472       -2.28768        2.45728
H          1.50597       -3.00782        0.42477
H          3.95995       -3.21207        1.72513
H          3.78742       -3.24058       -0.01826
H          2.22664       -1.56946        3.03834
H          0.59648       -1.99245        2.52886
H          1.75277       -3.26594        2.93162
H          3.81795       -1.33081       -1.95508
H          3.46571        0.37997       -2.15973
H          5.10001       -0.14049       -1.74993
Fe         0.85235        2.47795        0.87210
C          2.22639        3.20187       -0.48312
C          1.42251        4.28325        0.05987
C          0.02981        3.99681       -0.23980
C         -0.02456        2.74762       -0.97783
C          1.33027        2.25571       -1.11992
H          3.31597        3.13263       -0.44971
H          1.79948        5.16317        0.58600
H         -0.82277        4.63326        0.00799
H         -0.91821        2.27926       -1.39460
H          1.61922        1.36372       -1.67738
