171
-217.83558190
P         -1.64360        0.36851       -0.42525
P          1.60529       -0.49387        0.09524
C         -0.78919        1.03619       -1.84994
C          0.80191       -1.63324       -1.04856
C          0.06043        0.20923       -2.57419
C          0.77178        0.75137       -3.66104
C          0.57171        2.08058       -3.99890
C         -0.30172        2.87506       -3.28392
C         -0.97758        2.34948       -2.19923
C          0.80868       -2.95397       -0.66569
C          0.20855       -3.91442       -1.45556
C         -0.42179       -3.53673       -2.62080
C         -0.46820       -2.20825       -3.00940
C          0.16314       -1.23104       -2.21625
Cl         1.07844        0.61181        3.18010
Cl        -2.01154       -0.26393        2.80955
C         -1.19839       -1.84759       -4.25485
C          1.69983       -0.09037       -4.46362
H         -0.45810        3.90165       -3.57196
H         -1.65890        2.95826       -1.62616
H          1.28557       -3.23453        0.26150
H          0.23136       -4.95040       -1.15951
H          1.10636        2.49170       -4.83847
H         -0.90371       -4.27781       -3.23610
C         -4.32922       -3.14179       -1.38600
C         -4.43675       -1.99413       -2.16374
C         -3.57061       -0.94283       -1.88736
C         -2.67538       -1.03234       -0.84893
C         -2.59928       -2.16365       -0.07675
C         -3.41659       -3.25406       -0.34434
H         -4.98290       -3.97110       -1.57987
H         -3.60670       -0.03767       -2.47055
H         -1.90561       -2.18043        0.74581
C         -4.29146        3.34030        1.77478
C         -4.87619        2.35865        0.98490
C         -4.03522        1.50128        0.28900
C         -2.66998        1.62542        0.37278
C         -2.11141        2.61436        1.14641
C         -2.91266        3.47648        1.88476
H         -4.92515        4.00534        2.32881
H         -4.45301        0.71028       -0.30790
H         -1.04025        2.69169        1.20814
C          5.12784       -2.75421        1.86372
C          4.83987       -2.88489        0.51161
C          3.74105       -2.19573        0.01407
C          2.97361       -1.40758        0.83810
C          3.28359       -1.28567        2.16816
C          4.36650       -1.96134        2.71239
H          5.97043       -3.28495        2.26752
H          3.46800       -2.27635       -1.02417
H          2.66964       -0.64981        2.77781
C          3.74616        3.15506       -1.52791
C          4.18856        1.88844       -1.88944
C          3.46337        0.79579       -1.43252
C          2.35852        0.96625       -0.63389
C          1.94418        2.22602       -0.27548
C          2.63509        3.34876       -0.71510
H          4.29436        4.01151       -1.86953
H          3.78925       -0.20135       -1.67193
H          1.09348        2.33204        0.37404
Pd        -0.24625        0.06217        1.44430
C         -6.43952       -3.05971       -3.32381
C         -5.50370       -1.83699       -3.25941
C         -4.82424       -1.67100       -4.62943
C         -6.35780       -0.59125       -2.95795
H         -7.20198       -2.92267       -4.09056
H         -5.88631       -3.96592       -3.56972
H         -6.95078       -3.21210       -2.37338
H         -4.14465       -0.81951       -4.63272
H         -4.25581       -2.56350       -4.88800
H         -5.56428       -1.50992       -5.41322
H         -6.81734       -0.66848       -1.97285
H         -5.75377        0.31465       -2.98019
H         -7.15405       -0.47599       -3.69314
C         -4.70175       -4.70829        1.23724
C         -3.36303       -4.53599        0.49768
C         -2.22941       -4.48128        1.54139
C         -3.11732       -5.74553       -0.42343
H         -4.89729       -3.85138        1.88170
H         -5.53135       -4.79559        0.53646
H         -4.69239       -5.60370        1.85846
H         -2.38505       -3.66708        2.24883
H         -2.18417       -5.40818        2.11279
H         -1.26133       -4.34084        1.06155
H         -3.92719       -5.87063       -1.14093
H         -2.19134       -5.62091       -0.98356
H         -3.04074       -6.66638        0.15447
C         -6.76959        0.72445        1.21280
C         -6.39693        2.18038        0.86933
C         -6.82989        2.50195       -0.57152
C         -7.15711        3.11307        1.83193
H         -7.84890        0.57859        1.17363
H         -6.31602        0.01971        0.51730
H         -6.42999        0.46794        2.21603
H         -7.90398        2.36689       -0.69751
H         -6.58561        3.53309       -0.82614
H         -6.32329        1.85495       -1.28561
H         -8.23254        2.95250        1.75652
H         -6.86657        2.92850        2.86603
H         -6.96543        4.16036        1.59946
C         -1.51786        5.55433        1.98487
C         -2.26030        4.50265        2.82339
C         -1.26612        3.77973        3.75480
C         -3.30412        5.22144        3.70031
H         -2.20415        6.06850        1.31224
H         -1.04243        6.30034        2.62146
H         -0.74441        5.08743        1.38026
H         -0.81283        4.47686        4.45905
H         -1.77172        3.00170        4.32624
H         -0.46120        3.30708        3.19430
H         -4.00144        5.79691        3.09192
H         -3.87120        4.50747        4.29739
H         -2.81941        5.91564        4.38671
C          5.25910       -3.73158       -1.85169
C          5.72014       -3.77086       -0.38091
C          5.64270       -5.22513        0.11760
C          7.17678       -3.27489       -0.31595
H          5.29909       -2.71731       -2.24866
H          5.90034       -4.35496       -2.47466
H          4.23968       -4.10326       -1.95418
H          4.61436       -5.58545        0.09348
H          6.24659       -5.88430       -0.50581
H          6.00321       -5.31133        1.14204
H          7.57308       -3.33772        0.69674
H          7.82073       -3.87099       -0.96233
H          7.24483       -2.23606       -0.63785
C          3.76772       -0.92613        4.95970
C          4.73993       -1.84827        4.19737
C          6.16033       -1.26697        4.32036
C          4.69129       -3.24569        4.84195
H          3.78131        0.08360        4.55010
H          2.74682       -1.30403        4.90919
H          4.04270       -0.85846        6.01208
H          6.21640       -0.28649        3.84777
H          6.44702       -1.15500        5.36586
H          6.89537       -1.91204        3.84043
H          5.40132       -3.92456        4.37115
H          4.93312       -3.19427        5.90340
H          3.69667       -3.68008        4.74287
C          5.17396        0.89401       -3.97779
C          5.48635        1.65505       -2.67840
C          6.45370        0.82300       -1.81430
C          6.17847        2.98168       -3.04605
H          6.08447        0.70210       -4.54528
H          4.70309       -0.06618       -3.77064
H          4.50273        1.47545       -4.60875
H          6.02884       -0.14970       -1.57001
H          7.39619        0.65363       -2.33463
H          6.67155        1.33586       -0.87773
H          6.44446        3.54649       -2.15272
H          7.09646        2.79677       -3.60387
H          5.53354        3.60113       -3.66908
C          0.80905        5.05332       -0.86475
C          2.18662        4.74439       -0.25773
C          3.17257        5.84108       -0.70590
C          2.10542        4.77269        1.28100
H          0.44501        6.02735       -0.53856
H          0.86615        5.06436       -1.95246
H          0.07681        4.30110       -0.57649
H          3.23353        5.89605       -1.79261
H          2.85141        6.81866       -0.34636
H          4.17124        5.65527       -0.31093
H          3.07515        4.54008        1.72036
H          1.80073        5.75602        1.63866
H          1.38940        4.04419        1.65723
H         -1.47030       -0.79134       -4.26928
H          2.49019        0.51347       -4.90921
H         -2.11753       -2.42705       -4.33862
H         -0.59368       -2.05739       -5.13796
H          1.17128       -0.58949       -5.27617
H          2.17150       -0.85571       -3.84520
