111
-148.55448021
P         -2.33365        2.20305        0.74272
P          0.04520        0.12333        0.50766
C         -1.42912        1.70061        2.22808
C         -0.39460        0.79816        2.11851
C         -2.57798        4.03567        0.70056
C         -1.67035        4.67953       -0.32503
C         -1.76955        2.21297        3.46340
H         -2.58443        2.91412        3.54259
C         -1.06657        1.81837        4.58883
H         -1.33099        2.21720        5.55455
C         -0.02797        0.91373        4.47592
H          0.51902        0.60647        5.35202
C          0.30872        0.40055        3.23579
H          1.11532       -0.30793        3.12885
Pd        -1.26618        1.23095       -1.05034
Cl        -2.79369        2.20412       -2.37241
Cl        -0.12275        0.18086       -2.66851
C         -4.08320        4.17555        0.40599
C         -4.09509        1.63525        0.73096
H         -1.87269        4.28511       -1.32233
H         -1.81398        5.76195       -0.36245
H         -0.61855        4.48350       -0.10276
H         -4.22141        4.27379       -0.67959
H         -4.47428        5.10856        0.83952
H         -4.27157        1.22288       -0.27148
C         -4.88429        2.94453        0.91836
C         -4.34688        0.58782        1.79490
H         -2.34790        4.40387        1.70871
H         -5.10905        3.07265        1.98612
H         -5.86207        2.87656        0.41772
H         -3.69386       -0.27778        1.66294
H         -4.15281        0.99158        2.79003
H         -5.38203        0.23900        1.77561
C         -1.15579       -4.26713        0.31666
C         -2.05686       -3.25498       -0.10049
C         -1.65180       -1.93498        0.00133
C         -0.38542       -1.61119        0.41349
C          0.51958       -2.58862        0.73538
C          0.17911       -3.92939        0.65779
O         -1.60023       -5.61219        0.42165
C         -3.45824       -3.56428       -0.65088
H         -2.32994       -1.13579       -0.24211
H          1.50041       -2.28788        1.05985
C          1.24722       -4.99201        0.96244
C          4.30576        1.23310       -0.65849
C          3.48785        2.15734        0.04048
C          2.21463        1.75601        0.41090
C          1.72731        0.52656        0.04922
C          2.46957       -0.32074       -0.73073
C          3.75247        0.01490       -1.12903
O          5.68310        1.51254       -0.86447
C          3.96004        3.57371        0.40464
H          1.57770        2.40426        0.98859
H          2.02241       -1.24808       -1.04200
C          4.52687       -0.93987       -2.05106
C         -4.46320       -3.62402        0.50920
C         -3.91194       -2.46304       -1.63757
C         -3.46342       -4.89306       -1.42804
C          1.22435       -5.32013        2.46283
C          1.01192       -6.26907        0.13518
C          2.65513       -4.47330        0.59188
C         -2.14355       -5.94773        1.69223
H         -5.46947       -3.82673        0.14343
H         -4.20087       -4.40437        1.21921
H         -4.48514       -2.67815        1.04955
H         -3.15760       -2.29556       -2.40595
H         -4.83897       -2.74687       -2.13501
H         -4.09955       -1.51810       -1.12984
H         -3.22731       -5.73294       -0.77930
H         -4.43999       -5.08374       -1.87231
H         -2.72467       -4.87147       -2.22853
H          1.42570       -4.42790        3.05527
H          0.25465       -5.70662        2.76711
H          1.97769       -6.06743        2.71079
H          0.07152       -6.74610        0.39930
H          0.98098       -6.03623       -0.92870
H          1.80723       -6.99542        0.30068
H          3.39801       -5.26426        0.69260
H          2.67771       -4.12356       -0.43963
H          2.96879       -3.65655        1.24018
H         -2.13202       -5.07981        2.35272
H         -3.16793       -6.29917        1.56981
H         -1.55992       -6.75238        2.13901
C          6.52922        1.06687        0.18775
C          4.95375        4.11351       -0.64016
C          2.76480        4.55399        0.43481
C          4.61237        3.55085        1.79499
C          5.34569       -1.92068       -1.19856
C          3.55494       -1.74947       -2.93963
C          5.45528       -0.15804       -2.99811
H          5.23544        5.14259       -0.41861
H          5.86508        3.52138       -0.66463
H          4.51322        4.08910       -1.63633
H          2.08617        4.33883        1.25886
H          3.10890        5.57988        0.56414
H          2.20097        4.50528       -0.49646
H          4.95098        4.54552        2.08383
H          3.90413        3.20348        2.54690
H          5.47088        2.88379        1.81660
H          4.69621       -2.48865       -0.53348
H          5.88672       -2.62732       -1.82736
H          6.07165       -1.39599       -0.58234
H          2.86881       -1.08685       -3.46655
H          4.10140       -2.32721       -3.68466
H          2.96772       -2.45621       -2.35559
H          4.88768        0.57116       -3.57523
H          5.95723       -0.82751       -3.69616
H          6.22357        0.37819       -2.44633
H          7.03853        1.92014        0.63512
H          5.94718        0.54919        0.95125
H          7.28513        0.39219       -0.21389
