111
-148.54859483
P         -2.67636        1.94897       -0.32907
P          0.03855        0.46006        0.33312
C         -1.93233        2.11903        1.31718
C         -0.71631        1.52459        1.57447
C         -3.51667        3.52252       -0.83085
C         -2.67674        4.35687       -1.77305
C         -2.56616        2.83968        2.30972
H         -3.52774        3.28521        2.11564
C         -1.97208        2.97123        3.55319
H         -2.46675        3.53431        4.32773
C         -0.74799        2.38150        3.80387
H         -0.28688        2.48196        4.77261
C         -0.11995        1.65031        2.81171
H          0.82527        1.16343        2.99547
Pd        -1.08883        0.89200       -1.65041
Cl        -2.18339        1.70224       -3.42536
Cl         0.63373       -0.16036       -2.64548
C         -4.84947        3.01716       -1.41062
C         -4.11074        0.77851       -0.40271
H         -2.48007        3.82055       -2.70102
H         -3.18006        5.29008       -2.03587
H         -1.71073        4.60561       -1.32760
H         -4.71981        2.83604       -2.48663
H         -5.62375        3.79556       -1.33138
H         -3.91465        0.11177       -1.25315
C         -5.30429        1.70254       -0.71329
C         -4.24015       -0.01315        0.88057
H         -3.70223        4.07794        0.09710
H         -5.81585        1.94699        0.22770
H         -6.05029        1.17247       -1.32448
H         -3.34842       -0.61622        1.06427
H         -4.36685        0.65325        1.73579
H         -5.10141       -0.68467        0.85134
C         -1.27990       -3.83526        1.11153
C         -0.59044       -3.51233       -0.08720
C         -0.21658       -2.19565       -0.29008
C         -0.42467       -1.24006        0.66820
C         -0.97214       -1.57465        1.87923
C         -1.37484       -2.87145        2.15043
O         -1.94576       -5.08182        1.23406
C         -0.22856       -4.53490       -1.17692
H          0.22437       -1.88987       -1.22259
H         -1.10076       -0.80139        2.61644
C         -1.89371       -3.18092        3.56472
C          4.54596        1.02509        0.05472
C          3.67359        2.02681       -0.44294
C          2.30800        1.83455       -0.30880
C          1.80900        0.67310        0.21924
C          2.64449       -0.34458        0.59896
C          4.01949       -0.21645        0.49391
O          5.94050        1.27900        0.14492
C          4.18763        3.31084       -1.11248
H          1.60944        2.59260       -0.62010
H          2.20350       -1.24917        0.98000
C          4.91218       -1.41070        0.86604
C         -0.38744       -5.98750       -0.69595
C         -1.11640       -4.30102       -2.41054
C          1.25206       -4.35155       -1.57661
C         -3.28716       -2.55622        3.74663
C         -1.96698       -4.69205        3.84438
C         -0.92877       -2.57520        4.60795
C         -3.27833       -5.03961        0.75079
H         -1.42874       -6.22316       -0.48970
H         -0.03303       -6.69148       -1.44852
H          0.17990       -6.15334        0.21922
H         -0.98724       -3.29088       -2.79797
H         -0.86663       -5.00004       -3.20820
H         -2.16928       -4.43114       -2.16741
H          1.43490       -3.37347       -2.01835
H          1.89870       -4.45532       -0.70600
H          1.55250       -5.10020       -2.30910
H         -3.99639       -2.95974        3.02639
H         -3.67445       -2.75309        4.74595
H         -3.25113       -1.47599        3.60885
H         -2.70751       -5.17471        3.21108
H         -1.00455       -5.16531        3.65301
H         -2.24230       -4.88714        4.88058
H         -1.23208       -2.84380        5.61956
H          0.08520       -2.94264        4.45223
H         -0.90512       -1.48799        4.55505
H         -3.28617       -4.75409       -0.29998
H         -3.73187       -6.02491        0.86035
H         -3.85827       -4.31138        1.31552
C          6.34499        1.85354        1.38109
C          3.17077        3.82289       -2.15827
C          4.38678        4.39792       -0.04592
C          5.50835        3.05365       -1.86080
C          5.23762       -1.35433        2.36603
C          4.18883       -2.74300        0.56441
C          6.21185       -1.41222        0.04063
H          3.58726        4.65201       -2.72975
H          2.90567        3.03216       -2.85972
H          2.25735        4.18542       -1.68917
H          3.45072        4.60571        0.47195
H          5.11601        4.08944        0.69940
H          4.73749        5.32647       -0.49566
H          5.38684        2.25100       -2.58741
H          5.83828        3.94593       -2.39222
H          6.30253        2.76613       -1.17620
H          4.32453       -1.38878        2.95992
H          5.86468       -2.19514        2.66148
H          5.76327       -0.43689        2.62052
H          4.86065       -3.58931        0.70578
H          3.33577       -2.89890        1.22307
H          3.83610       -2.76413       -0.46632
H          6.82261       -0.54010        0.26007
H          5.98849       -1.40363       -1.02569
H          6.81153       -2.29650        0.25490
H          7.05229        1.19068        1.87913
H          6.84265        2.80525        1.19536
H          5.48091        2.01431        2.02700
