87
-129.18717295
P         -1.54942       -0.30866       -0.35156
P          1.67136        0.38671        0.04376
C         -1.22240        0.93964       -1.60198
C          1.53469       -0.70702       -1.38845
C         -0.17077        0.76456       -2.49327
C          0.08382        1.76920       -3.44818
C         -0.72827        2.89068       -3.48103
C         -1.77106        3.04127       -2.59163
C         -2.01424        2.06069       -1.65044
C          2.28656       -1.85718       -1.34820
C          2.18224       -2.79929       -2.35220
C          1.30499       -2.58995       -3.39339
C          0.53009       -1.44469       -3.45329
C          0.65456       -0.47173       -2.44245
Cl         1.12200        0.28332        3.25785
Cl        -1.47632       -1.54887        2.66597
H         -2.39033        3.92256       -2.62649
H         -2.82782        2.16947       -0.95282
H          2.95817       -2.02386       -0.52244
H          2.77487       -3.69863       -2.31436
H         -0.53016        3.65634       -4.21182
H          1.20742       -3.32773       -4.17171
C         -2.06132       -4.39209       -2.26912
C         -1.19063       -4.25147       -1.19711
C         -1.05849       -2.99871       -0.61075
C         -1.77907       -1.92743       -1.08473
C         -2.64731       -2.07595       -2.14055
C         -2.79118       -3.31597       -2.73499
H         -2.16095       -5.35533       -2.73973
C         -0.37461       -5.39902       -0.71642
H         -0.38084       -2.86267        0.21514
H         -3.19447       -1.21959       -2.50268
H         -3.46485       -3.43924       -3.56707
C         -5.18199        0.87967        2.13075
C         -5.22024       -0.27087        1.36791
C         -4.12450       -0.63014        0.60608
C         -3.00077        0.16215        0.61184
C         -2.95942        1.30647        1.37480
C         -4.05378        1.68816        2.14041
H         -6.03093        1.15635        2.73244
H         -6.10064       -0.89241        1.37139
H         -4.13619       -1.53184        0.01617
H         -2.06885        1.91149        1.38108
C         -3.98932        2.91157        2.98520
C          5.54921       -0.42499        2.29019
C          5.42090        0.71808        1.52623
C          4.24299        0.96428        0.84615
C          3.20291        0.06874        0.93579
C          3.32955       -1.07124        1.69596
C          4.50830       -1.33856        2.38142
H          6.46199       -0.61415        2.82905
H          6.23600        1.42032        1.46343
H          4.12703        1.85571        0.25180
H          2.49960       -1.75382        1.77710
C          4.62402       -2.55283        3.23387
C          1.11066        4.80941       -0.83340
C          2.00054        4.07137       -1.58944
C          2.18786        2.72839       -1.31953
C          1.48355        2.13835       -0.29679
C          0.61921        2.87768        0.47749
C          0.41404        4.22649        0.21639
H          0.94962        5.85071       -1.05464
H          2.53858        4.53780       -2.39832
H          2.86261        2.13188       -1.91289
H          0.11074        2.40907        1.30215
C         -0.56993        5.00682        1.01450
Pd        -0.05653       -0.31376        1.44430
C          1.20861        1.65535       -4.41766
C         -0.42280       -1.27451       -4.58558
H          1.89898        0.85875       -4.13826
H          0.83706        1.44333       -5.42094
H          1.77934        2.58406       -4.46123
H         -0.96542       -2.20101       -4.77852
H         -1.16193       -0.50114       -4.37423
H          0.10418       -0.99814       -5.49957
H         -0.16594       -5.31194        0.35088
H         -0.89209       -6.34581       -0.87707
H          0.57975       -5.44187       -1.24321
H         -3.44076        3.70773        2.47970
H         -4.98718        3.28903        3.21280
H         -3.48431        2.70216        3.92920
H          4.19840       -2.37191        4.22185
H          4.09358       -3.39588        2.78866
H          5.66624       -2.84765        3.36391
H         -1.57148        4.91073        0.59258
H         -0.60465        4.65499        2.04665
H         -0.31176        6.06650        1.03352
