111
-148.55494962
P         -2.55800        2.03367        0.79654
P          0.14243        0.39880        0.49150
C         -1.48883        1.77864        2.23967
C         -0.29412        1.10779        2.09093
C         -3.38589        3.68888        0.84201
C         -2.74423        4.66304       -0.12166
C         -1.86613        2.24244        3.48380
H         -2.81109        2.74687        3.60111
C         -1.03763        2.04191        4.57451
H         -1.33147        2.40462        5.54598
C          0.16280        1.37540        4.42068
H          0.80652        1.21719        5.27024
C          0.53326        0.90171        3.17500
H          1.45846        0.36321        3.04039
Pd        -1.29071        1.39420       -1.02497
Cl        -2.90632        2.26665       -2.31531
Cl         0.01907        0.71903       -2.72056
C         -4.85357        3.34172        0.53146
C         -4.03909        0.92413        0.76301
H         -3.23510        5.63848       -0.08926
H         -1.68554        4.80741        0.10646
H         -2.81040        4.29670       -1.14667
H         -5.01360        3.42657       -0.55229
H         -5.52866        4.08077        0.98928
H         -4.08461        0.50905       -0.25284
C         -5.20855        1.89951        0.99496
C         -3.92281       -0.18126        1.79020
H         -3.29339        4.05447        1.87246
H         -5.45355        1.90939        2.06593
H         -6.11577        1.53664        0.48841
H         -4.80799       -0.82150        1.79095
H         -3.05141       -0.81023        1.59624
H         -3.81094        0.23284        2.79398
C         -1.20732       -3.95045        0.28836
C         -1.07151       -3.31695        1.55049
C         -0.63356       -2.00355        1.58272
C         -0.40633       -1.30657        0.42532
C         -0.64102       -1.88233       -0.79502
C         -1.07900       -3.18971       -0.90137
O         -1.43594       -5.35046        0.21865
C         -1.36836       -4.04229        2.87234
H         -0.46197       -1.50374        2.51944
H         -0.47249       -1.28519       -1.67380
C         -1.38644       -3.75761       -2.29558
C          4.52113        0.84775       -0.67418
C          3.81659       -0.33741       -1.00536
C          2.48631       -0.43206       -0.63465
C          1.87799        0.55864        0.09028
C          2.58137        1.66175        0.49825
C          3.91925        1.81526        0.17143
O          5.80988        1.08518       -1.22168
C          4.44956       -1.49260       -1.79638
H          1.89645       -1.28255       -0.92733
H          2.06415        2.41064        1.07294
C          4.68583        3.03324        0.71074
C         -0.09757       -4.75525        3.35816
C         -1.81669       -3.03982        3.96040
C         -2.51271       -5.05737        2.69867
C         -0.10101       -4.34287       -2.89983
C         -2.48297       -4.83586       -2.22856
C         -1.90940       -2.64316       -3.23169
C         -0.24688       -6.12700        0.14528
H         -0.27375       -5.26536        4.30485
H          0.23947       -5.49516        2.63631
H          0.71257       -4.04121        3.50460
H         -2.14150       -3.56449        4.85862
H         -1.00663       -2.37437        4.25517
H         -2.65038       -2.43248        3.60949
H         -2.76762       -5.52701        3.64837
H         -3.40541       -4.56661        2.31223
H         -2.23913       -5.84777        2.00394
H          0.30725       -5.13097       -2.27132
H         -0.28956       -4.76212       -3.88777
H          0.66184       -3.57146       -3.00161
H         -2.74631       -5.18965       -3.22503
H         -2.15916       -5.69669       -1.64926
H         -3.38309       -4.43842       -1.76076
H         -2.25266       -3.06151       -4.17746
H         -2.74630       -2.11479       -2.77580
H         -1.13432       -1.91578       -3.46788
H          0.63215       -5.48484        0.21425
H         -0.23412       -6.85048        0.96041
H         -0.22284       -6.67480       -0.79648
C          5.78915        1.77322       -2.46617
C          5.95774       -1.60563       -1.51006
C          3.81320       -2.84271       -1.39228
C          4.20861       -1.26631       -3.29674
C          4.12249        3.46605        2.08371
C          6.17481        2.70361        0.92254
C          4.53794        4.20413       -0.27243
H          6.13764       -1.72214       -0.44188
H          6.39068       -2.46419       -2.02286
H          6.49299       -0.72015       -1.84314
H          4.34238       -3.67433       -1.85700
H          3.85288       -2.98212       -0.31229
H          2.77352       -2.91062       -1.70808
H          4.63432       -2.07661       -3.88796
H          3.14131       -1.21534       -3.51135
H          4.65688       -0.33367       -3.63118
H          4.74194        4.24489        2.52790
H          3.11487        3.86987        1.99794
H          4.09700        2.62396        2.77491
H          6.70339        3.54625        1.36756
H          6.28743        1.84499        1.58365
H          6.66666        2.46706       -0.01765
H          3.48816        4.46334       -0.40774
H          4.94479        3.95257       -1.24892
H          5.06009        5.08842        0.09205
H          4.76332        2.00810       -2.75309
H          6.36425        2.69535       -2.38359
H          6.24821        1.15309       -3.23587
