59
-75.79989660
Cl         1.61086        0.75643        2.33258
P          1.61221        0.13314       -0.78996
P         -1.54059       -0.30477       -0.76189
C          0.62364        0.24774       -2.34658
H          0.28090        1.28075       -2.44897
H          1.27901        0.03247       -3.19624
C         -0.54763       -0.68948       -2.27350
H         -0.20469       -1.72449       -2.21057
H         -1.19858       -0.61397       -3.14997
C          2.75593       -1.32691       -0.79138
H          2.71098       -1.75133       -1.80154
C          2.84577        1.50729       -0.64191
H          2.81132        1.83843        0.40311
C         -2.68356       -1.66377       -0.22902
H         -2.29154       -2.06200        0.71528
C         -2.76284        1.04914       -1.08371
H         -2.60750        1.38480       -2.11674
C          4.13618       -0.69379       -0.52687
H          4.36324       -0.78273        0.54456
H          4.92402       -1.26451       -1.04164
C          4.18116        0.80306       -0.93459
H          4.39693        0.88437       -2.00896
H          5.00808        1.32251       -0.42648
C         -4.01231       -0.91392       -0.00851
H         -4.86197       -1.59047       -0.17588
H         -4.08892       -0.59706        1.04231
C         -4.12086        0.33357       -0.92749
H         -4.86760        1.03877       -0.53421
H         -4.49742        0.02574       -1.91420
C          2.37756       -2.38296        0.24473
H          2.29097       -1.89757        1.22582
H          3.21172       -3.09109        0.34771
C          2.53852        2.67730       -1.56952
H          2.55440        2.32063       -2.60769
H          1.50936        3.01738       -1.39544
C         -2.75844       -2.77710       -1.26944
H         -3.16372       -2.36160       -2.20149
H         -1.74127       -3.10705       -1.51822
C         -2.58070        2.22203       -0.12517
H         -3.46198        2.87592       -0.18515
H         -2.57700        1.83711        0.90304
C          1.10116       -3.14084       -0.08438
H          0.88078       -3.91247        0.65683
H          1.17156       -3.63083       -1.05726
H          0.23968       -2.47449       -0.11892
C          3.50373        3.84067       -1.39739
H          4.53075        3.54020       -1.61231
H          3.48663        4.21739       -0.37293
H          3.26176        4.67565       -2.05895
C         -3.58194       -3.97516       -0.81699
H         -4.62141       -3.70363       -0.62783
H         -3.18622       -4.39617        0.10925
H         -3.58677       -4.77267       -1.56363
C         -1.32298        3.03356       -0.39476
H         -1.21424        3.86576        0.30438
H         -0.42746        2.41896       -0.30830
H         -1.32983        3.44991       -1.40388
Cl        -1.64368       -0.08749        2.37645
Pd         0.03444        0.07098        0.89716
