87
-129.18340323
P         -1.45903       -0.26221       -0.21603
P          1.84252        0.40778        0.10402
C         -1.11255        0.89046       -1.55062
C          1.62770       -0.78520       -1.23960
C         -0.06961        0.63120       -2.43181
C          0.18916        1.55206       -3.46672
C         -0.60935        2.67781       -3.58350
C         -1.64236        2.91328       -2.70094
C         -1.89086        2.01409       -1.68292
C          2.34100       -1.95364       -1.11186
C          2.18653       -2.97518       -2.02793
C          1.30048       -2.82464       -3.07149
C          0.56302       -1.66287       -3.21837
C          0.73193       -0.61396       -2.29366
Cl         1.34796        0.39950        3.26817
Cl        -1.32069       -1.41745        2.78946
H         -2.25098        3.79685       -2.80215
H         -2.69938        2.18676       -0.99224
H          3.02126       -2.07175       -0.28450
H          2.74953       -3.88792       -1.92122
H         -0.40872        3.37906       -4.37566
H          1.16839       -3.62065       -3.78466
C         -2.37441       -4.37995       -1.89480
C         -2.92200       -3.25641       -2.49866
C         -2.63991       -2.00788       -1.95537
C         -1.82353       -1.89637       -0.85415
C         -1.29043       -3.01451       -0.25786
C         -1.56402       -4.26316       -0.78258
H         -2.59307       -5.35199       -2.30303
C         -3.81501       -3.38730       -3.68195
H         -3.05342       -1.11802       -2.40127
H         -0.67794       -2.90685        0.62242
H         -1.14873       -5.14383       -0.32077
C         -4.98298        1.21967        2.26318
C         -3.83550        1.98292        2.17775
C         -2.76609        1.53677        1.42531
C         -2.85403        0.33713        0.75812
C         -3.99486       -0.42621        0.84448
C         -5.07618        0.00054        1.60611
H         -5.81870        1.56563        2.84730
H         -3.77164        2.92411        2.69888
H         -1.86445        2.12198        1.35133
H         -4.04600       -1.36672        0.32280
C         -6.31697       -0.81757        1.68380
C          5.86797       -0.20124        2.14387
C          5.68645        0.85657        1.27510
C          4.46251        1.04127        0.65977
C          3.42967        0.17041        0.91861
C          3.60968       -0.88511        1.78271
C          4.83480       -1.09035        2.40552
H          6.81734       -0.34173        2.63199
H          6.49622        1.54029        1.07952
H          4.30559        1.86612       -0.01579
H          2.78618       -1.54681        1.99542
C          5.01073       -2.21029        3.36956
C          1.11435        4.77033       -0.93728
C          1.97010        4.01846       -1.71861
C          2.20975        2.69410       -1.40243
C          1.59043        2.13582       -0.30939
C          0.76428        2.89155        0.49050
C          0.50691        4.22178        0.18392
H          0.91205        5.79639       -1.19317
H          2.43989        4.45875       -2.58277
H          2.85839        2.08649       -2.01315
H          0.33571        2.45268        1.37502
C         -0.43590        5.01924        1.01421
Pd         0.10414       -0.24405        1.51525
C          1.30201        1.34375       -4.43422
C         -0.38991       -1.55305       -4.35824
H          1.98584        0.56448       -4.09596
H          0.91716        1.05347       -5.41259
H          1.88298        2.25838       -4.56109
H         -0.95100       -2.47977       -4.48556
H         -1.11235       -0.75157       -4.20130
H          0.14006       -1.35251       -5.29009
H         -4.83371       -3.62656       -3.37374
H         -3.84697       -2.46069       -4.25702
H         -3.46944       -4.17877       -4.34857
H         -7.00410       -0.55725        0.87749
H         -6.09058       -1.88178        1.60332
H         -6.83365       -0.66044        2.63167
H          4.44568       -3.08932        3.05604
H          6.05888       -2.50136        3.45148
H          4.66144       -1.92279        4.36218
H         -1.45832        4.91077        0.64922
H         -0.41431        4.69347        2.05521
H         -0.18051        6.07956        0.99306
