58
-89.86722102
P          1.72602        0.31744        0.67473
C          3.10089        1.36107        0.17418
C          4.11604        0.83107       -0.58927
C          5.16018        1.63799       -1.00406
C          5.17646        2.97397       -0.65573
C          4.15060        3.50458        0.10112
C          3.10743        2.69484        0.51396
H          2.29153        3.10241        1.08910
H          4.08253       -0.21016       -0.86702
C          2.19393       -1.41559        0.59617
C          1.41057       -2.32309       -0.07754
C          1.76465       -3.65923       -0.09941
C          2.90471       -4.07881        0.55623
C          3.68742       -3.16618        1.23564
C          3.32738       -1.83018        1.25793
H          3.92527       -1.10696        1.79015
H          0.51435       -1.98990       -0.57149
C          1.27992        0.69333        2.41491
C          0.22608       -0.25769        2.96684
C         -1.20006        0.13179        2.61095
P         -1.67412       -0.10453        0.84816
C         -1.80955       -1.83873        0.39639
C         -2.02840       -2.13990       -0.92883
C         -2.11284       -3.45858       -1.33462
C         -1.97884       -4.47038       -0.40492
C         -1.76461       -4.16559        0.92505
C         -1.68067       -2.84475        1.32730
H         -1.51441       -2.59980        2.36311
H         -2.11982       -1.33357       -1.63903
C         -3.24312        0.73863        0.63000
C         -4.39637        0.01239        0.43990
C         -5.60119        0.66928        0.26609
C         -5.64034        2.04966        0.28355
C         -4.47991        2.77382        0.47424
C         -3.27626        2.11403        0.64865
H         -2.35998        2.66557        0.79014
H         -4.34841       -1.06449        0.42330
Pd        -0.12256        0.70865       -0.67328
Cl         1.31378        1.64584       -2.12755
Cl        -1.87391        0.95062       -2.07049
H         -1.92779       -0.43670        3.19496
H         -1.37311        1.18419        2.84411
H          0.43461       -1.27689        2.61515
H          0.31979       -0.30582        4.06319
H          2.21432        0.62323        2.97746
H          0.94641        1.73033        2.47720
H          5.95542        1.22509       -1.60268
H          4.15805        4.54947        0.36464
H          1.14575       -4.37077       -0.62072
H          4.57587       -3.49325        1.75037
H         -2.27938       -3.69396       -2.37286
H         -1.65945       -4.95628        1.64964
H         -6.50610        0.10421        0.11413
H         -4.50976        3.85097        0.48312
H          5.98755        3.60502       -0.98074
H          3.18209       -5.12021        0.54060
H         -2.04164       -5.49994       -0.71762
H         -6.57797        2.56294        0.14530
