58
-89.86105570
P          1.60236        0.07354        0.81850
C          2.86411        1.36308        0.88983
C          3.14427        2.11039       -0.23122
C          4.10749        3.10019       -0.18826
C          4.79747        3.33469        0.98349
C          4.52782        2.57747        2.10567
C          3.56120        1.58887        2.05677
H          3.35702        0.99008        2.92859
H          2.62345        1.89685       -1.14843
C          2.31226       -1.47685        0.26057
C          1.49893       -2.58092        0.15194
C          2.02308       -3.78096       -0.29207
C          3.36048       -3.86455       -0.62578
C          4.17256       -2.75230       -0.51868
C          3.64434       -1.55351       -0.07449
H          4.26264       -0.67423        0.00595
H          0.45410       -2.49717        0.40085
C          0.87551       -0.15839        2.48966
C          0.02719        1.05579        2.85496
C         -1.44592        0.89665        2.51015
P         -1.76459        0.26680        0.80465
C         -1.88509       -1.53381        0.72273
C         -1.98589       -2.09850       -0.52920
C         -2.03535       -3.47233       -0.67212
C         -1.98648       -4.27830        0.44689
C         -1.89756       -3.71203        1.70284
C         -1.85005       -2.33694        1.84095
H         -1.79066       -1.89527        2.82119
H         -2.01410       -1.45320       -1.39304
C         -3.28370        1.02522        0.22493
C         -3.29798        2.37545       -0.03870
C         -4.45954        2.97342       -0.49471
C         -5.59715        2.21300       -0.68165
C         -5.57710        0.85813       -0.41483
C         -4.41431        0.26305        0.04012
H         -4.38147       -0.79426        0.24759
H         -2.39823        2.95354        0.10354
Pd        -0.05541        0.45057       -0.77784
Cl         1.57487        0.44002       -2.32028
Cl        -1.69174        0.74347       -2.29361
H         -1.93640        0.20559        3.19740
H         -1.97575        1.84763        2.60642
H          0.12838        1.28670        3.92747
H          0.43627        1.93501        2.33500
H          0.28746       -1.07565        2.49569
H          1.70210       -0.31605        3.18542
H          4.32251        3.68209       -1.06948
H          5.07064        2.75491        3.01961
H          1.38635       -4.64570       -0.38133
H          5.21492       -2.81602       -0.78448
H         -2.10651       -3.91044       -1.65403
H         -1.86488       -4.34176        2.57682
H         -4.47374        4.02964       -0.70778
H         -6.46372        0.26407       -0.56395
H          5.55041        4.10506        1.02090
H          3.77043       -4.79841       -0.97439
H         -2.02120       -5.35029        0.34032
H         -6.50158        2.67745       -1.03942
