171
-217.84527169
P         -1.62313        0.35223       -0.41844
P          1.60232       -0.39671       -0.27196
C         -0.87781        1.26518       -1.76856
C          0.93475       -1.41769       -1.58910
C         -0.05617        0.61027       -2.67872
C          0.56997        1.36654       -3.68843
C          0.32091        2.72667       -3.76838
C         -0.52207        3.35009       -2.87264
C         -1.11480        2.61401       -1.86551
C          1.16783       -2.77069       -1.53602
C          0.61712       -3.60943       -2.48424
C         -0.18609       -3.08317       -3.47315
C         -0.43766       -1.72273       -3.54121
C          0.15227       -0.86256       -2.59547
Cl         1.40778        0.30878        2.93809
Cl        -1.72292       -0.49833        2.77050
C         -1.31593       -1.19681       -4.62095
C          1.48293        0.73155       -4.67821
H         -0.71510        4.40719       -2.95535
H         -1.76874        3.09192       -1.15389
H          1.78389       -3.17470       -0.74921
H          0.80842       -4.66939       -2.44528
H          0.79704        3.29896       -4.54667
H         -0.63075       -3.73360       -4.20744
C         -4.01844       -3.20625       -1.84504
C         -2.98803       -3.41168       -0.93557
C         -2.26432       -2.30435       -0.51150
C         -2.55803       -1.05680       -1.00125
C         -3.57288       -0.87025       -1.90746
C         -4.33445       -1.94750       -2.34379
H         -4.59491       -4.05556       -2.15968
H         -1.46696       -2.40289        0.20478
H         -3.77918        0.12549       -2.26375
C         -4.18266        2.87784        2.35284
C         -4.78062        1.83842        1.65165
C         -3.98884        1.10391        0.77743
C         -2.66199        1.41417        0.60615
C         -2.09083        2.45120        1.30300
C         -2.83960        3.19977        2.20136
H         -4.78062        3.43248        3.05113
H         -4.39457        0.26215        0.24540
H         -1.04058        2.65322        1.17584
C          4.43889       -2.75762        2.36797
C          3.08892       -3.08457        2.38089
C          2.23872       -2.36576        1.55020
C          2.72763       -1.35912        0.75428
C          4.06478       -1.04781        0.75840
C          4.95274       -1.74857        1.56388
H          5.10777       -3.29439        3.01535
H          1.18191       -2.56957        1.53601
H          4.40901       -0.24076        0.13728
C          3.81579        3.31325       -1.60527
C          2.82507        3.43634       -0.63856
C          2.12888        2.29044       -0.27649
C          2.43181        1.08099       -0.85056
C          3.41901        0.97400       -1.79936
C          4.13571        2.09710       -2.19617
H          4.36928        4.18413       -1.90140
H          1.35131        2.33351        0.46632
H          3.63194        0.00352       -2.21463
Pd        -0.08647       -0.04922        1.29908
C         -2.43962       -5.77501       -1.58566
C         -2.70403       -4.82314       -0.40421
C         -3.92328       -5.31429        0.39645
C         -1.47118       -4.84131        0.51981
H         -3.30920       -5.85305       -2.23686
H         -1.60344       -5.41956       -2.18636
H         -2.19877       -6.77741       -1.23213
H         -4.81415       -5.35891       -0.22911
H         -3.74853       -6.31063        0.80209
H         -4.13233       -4.64216        1.22855
H         -1.62971       -4.21423        1.39693
H         -1.26516       -5.85237        0.87080
H         -0.58500       -4.48545       -0.00466
C         -5.00534       -1.05317       -4.59965
C         -5.51175       -1.70918       -3.30243
C         -6.53165       -0.77838       -2.62226
C         -6.22335       -3.02537       -3.67117
H         -5.83313       -0.83993       -5.27581
H         -4.49177       -0.11424       -4.39672
H         -4.31320       -1.71325       -5.12029
H         -6.89042       -1.21760       -1.69172
H         -6.08772        0.18922       -2.39118
H         -7.39295       -0.60425       -3.26695
H         -5.53825       -3.71773       -4.16021
H         -6.63463       -3.51092       -2.78637
H         -7.04932       -2.83877       -4.35747
C         -7.12657        2.73732        1.65260
C         -6.25455        1.49376        1.90812
C         -6.41543        1.03461        3.36852
C         -6.74199        0.36310        0.98221
H         -6.99772        3.09371        0.63073
H         -8.18220        2.50959        1.79977
H         -6.86643        3.55211        2.32700
H         -7.44912        0.76270        3.58136
H         -5.78843        0.16590        3.56863
H         -6.12629        1.82182        4.06388
H         -6.17994       -0.55540        1.15028
H         -7.79417        0.14177        1.16073
H         -6.63656        0.64897       -0.06342
C         -1.03707        3.63705        3.88063
C         -2.14815        4.28807        3.03429
C         -3.13353        4.99706        3.98292
C         -1.53720        5.33983        2.09253
H         -0.52328        4.37955        4.49068
H         -1.45413        2.88109        4.54551
H         -0.29375        3.14814        3.25261
H         -3.93785        5.47701        3.42567
H         -3.57288        4.29349        4.68979
H         -2.62556        5.76938        4.56041
H         -1.04400        6.13154        2.65624
H         -0.79799        4.89023        1.43354
H         -2.30730        5.79530        1.47028
C          1.06174       -4.41477        3.14922
C          2.57253       -4.17319        3.33161
C          2.82380       -3.73015        4.78418
C          3.31259       -5.49402        3.05122
H          0.48939       -3.51334        3.36774
H          0.84080       -4.72873        2.12986
H          0.71012       -5.19820        3.82032
H          2.45052       -4.47235        5.48951
H          3.88699       -3.59046        4.97622
H          2.32041       -2.78529        4.98852
H          2.94473       -6.29135        3.69682
H          3.16728       -5.80364        2.01636
H          4.38345       -5.39457        3.22394
C          7.26246       -2.67893        1.25059
C          6.45142       -1.41890        1.60542
C          6.82368       -0.94058        3.02033
C          6.81578       -0.30800        0.60044
H          8.33147       -2.46664        1.24835
H          7.08454       -3.48066        1.96622
H          6.98916       -3.04604        0.26147
H          6.24229       -0.06006        3.29321
H          6.62777       -1.71329        3.76285
H          7.88033       -0.68015        3.07933
H          6.29007        0.61851        0.83082
H          7.88435       -0.09524        0.62866
H          6.56469       -0.60495       -0.41767
C          2.30839        4.61652        1.52669
C          2.46775        4.78506        0.00230
C          1.14853        5.28480       -0.60693
C          3.56264        5.84090       -0.24766
H          2.10144        5.57363        2.00516
H          1.48894        3.94416        1.77300
H          3.21874        4.20941        1.96605
H          0.35493        4.55334       -0.46261
H          0.83517        6.22414       -0.15177
H          1.25861        5.44799       -1.67874
H          4.53032        5.49137        0.11200
H          3.65182        6.07646       -1.30776
H          3.32929        6.76985        0.27256
C          6.60572        2.38499       -2.48266
C          5.29381        2.02048       -3.20180
C          5.04828        3.01173       -4.35530
C          5.43954        0.60523       -3.79445
H          6.56709        3.39665       -2.08016
H          6.79305        1.70332       -1.65369
H          7.45391        2.32822       -3.16467
H          5.01138        4.03933       -3.99617
H          5.84418        2.94949       -5.09728
H          4.10491        2.80014       -4.85638
H          4.52821        0.29629       -4.30506
H          6.25230        0.57175       -4.51986
H          5.66373       -0.12508       -3.01725
H         -1.78600       -0.25713       -4.32746
H          0.98832        0.60901       -5.64264
H         -2.10986       -1.90764       -4.85153
H         -0.74935       -1.02246       -5.53636
H          1.81761       -0.25047       -4.34133
H          2.36987        1.34500       -4.83545
