171
-217.83795487
P         -1.66545        0.70649        0.15837
P          1.48969       -0.19738       -0.22588
C         -0.83823        1.92941       -0.88682
C          0.70459       -0.72089       -1.76559
C         -0.09245        1.62008       -2.01825
C          0.60827        2.65143       -2.67151
C          0.49684        3.94936       -2.20251
C         -0.26109        4.24122       -1.08899
C         -0.91531        3.22201       -0.42416
C          0.79834       -2.02108       -2.19918
C          0.18831       -2.41133       -3.37449
C         -0.52739       -1.49169       -4.11186
C         -0.65396       -0.17962       -3.68541
C         -0.00815        0.21864       -2.49903
Cl         1.96058        1.02449        2.83386
Cl        -1.13457        0.42032        3.43002
C         -1.45401        0.79187       -4.48181
C          1.49332        2.38019       -3.83763
H         -0.33214        5.25500       -0.73014
H         -1.48628        3.42964        0.46893
H          1.34090       -2.74098       -1.61308
H          0.26541       -3.43281       -3.70964
H          1.02343        4.73515       -2.71738
H         -0.99810       -1.79177       -5.03259
C         -2.73350       -3.47576       -1.23891
C         -1.77318       -3.34266       -0.24243
C         -1.40901       -2.05824        0.14015
C         -1.99811       -0.95935       -0.44253
C         -2.96029       -1.11366       -1.40982
C         -3.34468       -2.37874       -1.83476
H         -3.03092       -4.46049       -1.54298
H         -0.67460       -1.91920        0.91310
H         -3.43985       -0.23846       -1.81299
C         -5.71447        2.44453        1.22822
C         -4.95284        1.87478        2.24263
C         -3.70932        1.35924        1.90820
C         -3.25048        1.41387        0.61812
C         -4.01321        1.98183       -0.37217
C         -5.26503        2.51115       -0.08614
H         -6.67939        2.84776        1.46775
H         -3.08011        0.92309        2.66256
H         -3.62422        2.01822       -1.37649
C          3.68921       -3.77221        1.55764
C          2.82917       -3.05692        2.37862
C          2.16203       -1.97079        1.83006
C          2.35633       -1.60597        0.51833
C          3.23253       -2.31666       -0.26734
C          3.89956       -3.42942        0.22933
H          4.21593       -4.61477        1.96651
H          1.49738       -1.39467        2.44420
H          3.38460       -2.00742       -1.28562
C          4.55411        2.99512       -1.21856
C          3.61500        3.25683       -0.22918
C          2.69033        2.26452        0.06737
C          2.71131        1.06464       -0.59835
C          3.64082        0.82805       -1.58085
C          4.58648        1.79050       -1.91126
H          5.28139        3.75204       -1.44418
H          1.94557        2.42195        0.82621
H          3.62414       -0.11174       -2.10386
Pd         0.15648        0.50379        1.60035
C         -1.38547       -4.39788        1.99876
C         -1.16798       -4.55655        0.48166
C          0.33699       -4.64221        0.18204
C         -1.82725       -5.87614        0.03556
H         -0.86303       -3.52423        2.38548
H         -2.44509       -4.28111        2.22495
H         -1.02075       -5.27103        2.53892
H          0.79421       -5.48244        0.70421
H          0.51182       -4.77461       -0.88515
H          0.84743       -3.73609        0.49982
H         -1.66416       -6.05810       -1.02652
H         -1.40653       -6.72115        0.58057
H         -2.90040       -5.86180        0.22531
C         -4.65488       -3.97651       -3.32289
C         -4.49741       -2.52176       -2.83969
C         -4.23855       -1.63386       -4.07030
C         -5.80328       -2.08036       -2.15482
H         -4.92599       -4.63903       -2.50130
H         -5.44087       -4.05113       -4.07434
H         -3.73053       -4.34042       -3.77146
H         -5.04177       -1.73607       -4.79985
H         -4.17428       -0.58162       -3.79765
H         -3.30661       -1.91733       -4.55674
H         -6.01014       -2.70105       -1.28324
H         -5.73741       -1.04629       -1.81818
H         -6.64989       -2.15971       -2.83649
C         -5.48363        0.32276        4.13801
C         -5.42685        1.79852        3.70103
C         -6.82659        2.41658        3.88087
C         -4.43465        2.56446        4.59622
H         -6.16123       -0.24229        3.49829
H         -4.50143       -0.14494        4.08033
H         -5.83505        0.23325        5.16571
H         -6.82967        3.46957        3.59986
H         -7.56703        1.89388        3.27564
H         -7.14657        2.35241        4.92082
H         -4.75319        2.54426        5.63820
H         -3.43738        2.12908        4.54482
H         -4.36080        3.60628        4.28519
C         -7.43679        3.68470       -0.71331
C         -6.08934        3.13629       -1.22054
C         -6.36918        2.06611       -2.29234
C         -5.29274        4.29781       -1.84430
H         -8.00584        4.12788       -1.53051
H         -8.04581        2.89109       -0.28080
H         -7.28704        4.45710        0.04086
H         -6.92027        1.22887       -1.86475
H         -6.96147        2.47749       -3.10947
H         -5.44354        1.67721       -2.71521
H         -5.06152        5.05273       -1.09307
H         -4.35161        3.95053       -2.26924
H         -5.86095        4.77703       -2.64133
C          1.63478       -2.56056        4.57275
C          2.65701       -3.46104        3.84972
C          4.01219       -3.33210        4.56853
C          2.16457       -4.91763        3.92630
H          1.51844       -2.86501        5.61261
H          1.95645       -1.51930        4.56964
H          0.65446       -2.61914        4.10117
H          4.76018       -3.98672        4.12267
H          4.38322       -2.30922        4.50672
H          3.92217       -3.59611        5.62206
H          1.21942       -5.03207        3.39753
H          2.88257       -5.60403        3.47924
H          2.01121       -5.22364        4.96098
C          4.83411       -3.80368       -2.10924
C          4.84215       -4.27266       -0.64063
C          4.38935       -5.74491       -0.60532
C          6.27507       -4.15334       -0.09284
H          3.83098       -3.85775       -2.53217
H          5.19175       -2.77867       -2.19765
H          5.48442       -4.43073       -2.71900
H          4.43487       -6.15234        0.40377
H          3.36270       -5.83963       -0.95889
H          5.02329       -6.36289       -1.24096
H          6.97311       -4.73526       -0.69442
H          6.60481       -3.11452       -0.10227
H          6.33565       -4.51390        0.93348
C          2.50455        4.68337        1.56226
C          3.63950        4.59533        0.52225
C          3.47178        5.75066       -0.48102
C          4.98457        4.73595        1.25776
H          2.52872        5.64107        2.08171
H          1.52850        4.59040        1.08730
H          2.59861        3.89905        2.31304
H          3.47696        6.71370        0.02918
H          4.27573        5.75863       -1.21596
H          2.52838        5.65982       -1.01768
H          5.12689        3.91248        1.95735
H          5.82038        4.72972        0.55912
H          5.02635        5.66844        1.82031
C          4.99360        0.96034       -4.25673
C          5.65876        1.46824       -2.96261
C          6.58802        0.37794       -2.39979
C          6.50433        2.70821       -3.31174
H          5.74339        0.73344       -5.01449
H          4.41735        0.05269       -4.08282
H          4.32187        1.71293       -4.66762
H          7.07210        0.71898       -1.48487
H          6.03017       -0.52700       -2.16286
H          7.36536        0.11630       -3.11744
H          5.87525        3.51883       -3.67940
H          7.05794        3.06552       -2.44379
H          7.23161        2.47369       -4.08898
H         -0.81702        1.35570       -5.16396
H          2.46647        2.85263       -3.69563
H         -1.96698        1.50283       -3.83196
H         -2.21212        0.28580       -5.08075
H          1.06123        2.77574       -4.75784
H          1.66311        1.31131       -3.97303
