111
-148.55115427
P         -2.60297        1.96426        0.75890
P          0.18042        0.47687        0.41881
C         -1.48568        1.79340        2.17944
C         -0.25997        1.18463        2.01777
C         -3.62581        3.50087        0.90841
C         -3.52977        4.35299       -0.33756
C         -1.86363        2.25450        3.42467
H         -2.83039        2.71289        3.55287
C         -1.00768        2.11098        4.50302
H         -1.30297        2.47144        5.47489
C          0.22139        1.50254        4.33658
H          0.88607        1.38669        5.17680
C          0.59391        1.03244        3.09027
H          1.54145        0.53683        2.94718
Pd        -1.30730        1.44721       -1.08129
Cl        -2.94419        2.09639       -2.46061
Cl         0.12951        0.80251       -2.68946
C         -5.04057        2.94685        1.17895
C         -3.93343        0.67844        0.71967
H         -4.10421        5.27703       -0.23789
H         -2.49362        4.61944       -0.55881
H         -3.92301        3.81476       -1.20100
H         -5.78988        3.63369        0.75888
H         -5.23371        2.92493        2.26158
H         -3.76590        0.07418       -0.18276
C         -5.22224        1.51681        0.59585
C         -3.87717       -0.19220        1.95561
H         -3.24283        4.05598        1.77508
H         -6.04981        0.99506        1.09827
H         -5.51695        1.59160       -0.46134
H         -4.65549       -0.95896        1.94353
H         -2.91075       -0.69343        2.03977
H         -4.01570        0.40831        2.85664
C         -1.24782       -3.85185        0.27562
C         -1.00056       -3.23479        1.52873
C         -0.53565       -1.93024        1.53845
C         -0.37518       -1.22803        0.37284
C         -0.70143       -1.79079       -0.83218
C         -1.18299       -3.08456       -0.91511
O         -1.53048       -5.24247        0.21350
C         -1.20689       -3.97106        2.86212
H         -0.29218       -1.43985        2.46420
H         -0.57114       -1.19492       -1.71800
C         -1.62007       -3.62654       -2.28505
C          4.61272        0.81403       -0.58369
C          3.98343        1.84390        0.16130
C          2.63976        1.70586        0.47012
C          1.92033        0.62623        0.02742
C          2.50072       -0.31996       -0.77558
C          3.83345       -0.23181       -1.14042
O          6.02392        0.81542       -0.74530
C          4.74751        3.08129        0.65797
H          2.13376        2.44088        1.07168
H          1.88927       -1.13334       -1.12522
C          4.40352       -1.26256       -2.12759
C          0.07520       -4.73572        3.22414
C         -1.52067       -2.97530        4.00207
C         -2.39804       -4.94243        2.77473
C         -0.41288       -4.26223       -2.99066
C         -2.75524       -4.65583       -2.13847
C         -2.16377       -2.48213       -3.17232
C         -0.38210       -6.06054        0.02848
H          0.91936       -4.05212        3.31190
H         -0.03672       -5.25820        4.17387
H          0.32319       -5.47197        2.46373
H         -2.36542       -2.33875        3.74182
H         -1.77524       -3.50655        4.91891
H         -0.66657       -2.33900        4.22917
H         -2.58615       -5.41956        3.73621
H         -3.30262       -4.41407        2.47526
H         -2.21490       -5.72955        2.04730
H          0.37657       -3.52627       -3.13956
H          0.00253       -5.07869       -2.40479
H         -0.69425       -4.65638       -3.96680
H         -3.10835       -4.99147       -3.11320
H         -2.42738       -5.53359       -1.58752
H         -3.59899       -4.22186       -1.60294
H         -1.37739       -1.78803       -3.46479
H         -2.59794       -2.87698       -4.09040
H         -2.93827       -1.92081       -2.65024
H          0.52210       -5.45062        0.01567
H         -0.31939       -6.78781        0.83787
H         -0.46651       -6.60538       -0.91151
C          6.72291        0.07670        0.24853
C          5.83964        3.49473       -0.34539
C          3.79603        4.28927        0.81196
C          5.37433        2.77572        2.02672
C          3.30638       -1.73338       -3.11042
C          5.53250       -0.65151       -2.97718
C          4.92236       -2.48185       -1.35090
H          6.33836        4.40986       -0.02716
H          6.59972        2.72354       -0.44404
H          5.40908        3.66773       -1.33111
H          3.08493        4.14088        1.62335
H          4.35602        5.19592        1.04003
H          3.23830        4.46322       -0.10789
H          5.91279        3.64134        2.41173
H          4.60572        2.50624        2.75082
H          6.07430        1.94623        1.96304
H          3.73168       -2.35454       -3.89830
H          2.54604       -2.32980       -2.60894
H          2.81717       -0.88134       -3.58185
H          5.89094       -1.36137       -3.72220
H          5.18070        0.23851       -3.49786
H          6.38126       -0.36345       -2.36213
H          5.32379       -3.23450       -2.02903
H          4.11966       -2.94096       -0.77416
H          5.71002       -2.20118       -0.65579
H          7.43807        0.72817        0.75056
H          6.02527       -0.33108        0.98111
H          7.27567       -0.73727       -0.22002
