105
-153.06969093
Cl         0.53183        2.09814        2.98527
Pd        -0.33828        1.35868        1.03805
P         -1.24825        0.75775       -1.00391
N         -0.23052       -0.35967       -1.89718
C          0.30633       -1.61814       -1.65770
C          0.23621       -2.29599       -0.41492
C          0.92970       -3.51187       -0.24588
C          0.84367       -4.21098        1.09113
C          1.36856       -5.65550        1.09380
C          2.66877       -5.77148        0.29295
C          2.44789       -5.33733       -1.16383
C          1.66782       -4.05436       -1.29947
C          1.68393       -3.39835       -2.52285
C          1.02021       -2.21217       -2.69860
H          1.07286       -1.70310       -3.64535
H          2.24560       -3.82571       -3.33625
H          3.41175       -5.22171       -1.67611
H          3.43461       -5.13373        0.75181
H          1.51214       -6.01668        2.12194
H          1.39802       -3.61587        1.82630
C         -0.68327       -1.87066        0.66678
C         -0.16507       -1.30347        1.86637
C         -1.03571       -1.13348        2.94889
C         -2.35939       -1.47823        2.85107
C         -2.87731       -2.04794        1.69350
C         -4.33056       -2.46116        1.69577
C         -4.83042       -3.10024        0.38764
C         -3.73344       -3.92154       -0.29572
C         -2.51297       -3.04089       -0.59748
C         -2.03061       -2.27012        0.60598
H         -1.69349       -3.65676       -0.98810
H         -4.11171       -4.39623       -1.21222
H         -5.16284       -2.31401       -0.29917
H         -4.93988       -1.58275        1.94360
H         -3.01675       -1.31836        3.68890
H         -0.65830       -0.68606        3.85150
N          1.16051       -0.85726        1.97471
P          1.74984        0.21268        0.69458
C          2.92851       -0.66081       -0.33862
C          3.24359       -0.20588       -1.59649
C          4.19423       -0.87460       -2.34601
C          4.84876       -1.98585       -1.83066
C          4.53011       -2.41582       -0.54976
C          3.57539       -1.74840        0.19599
H          3.32157       -2.07311        1.19235
H          5.02901       -3.27854       -0.14288
C          5.83937       -2.73115       -2.65516
H          4.43139       -0.53829       -3.34086
H          2.74513        0.66505       -1.98808
C          2.71053        1.58759        1.33416
C          3.54912        1.40742        2.40717
C          4.29704        2.47222        2.87635
C          4.20733        3.71969        2.27269
C          3.36993        3.87323        1.17571
C          2.62340        2.80801        0.70634
H          1.96929        2.92431       -0.14372
H          3.30432        4.83282        0.69202
C          5.02622        4.86118        2.76638
H          4.95591        2.34006        3.71749
H          3.61836        0.43667        2.87115
H          1.39474       -0.39783        2.84581
H         -0.24834       -0.04784       -2.86035
C         -1.03310        2.36406       -1.77352
C         -2.04996        3.28880       -1.76339
C         -1.84027        4.54388       -2.30502
C         -0.61091        4.88024       -2.85664
C          0.40863        3.93769       -2.84154
C          0.19516        2.68225       -2.30207
H          0.98325        1.94798       -2.28355
H          1.37117        4.19408       -3.25015
C         -0.37610        6.24300       -3.40907
H         -2.63035        5.27514       -2.29384
H         -2.99747        3.03060       -1.31880
C         -2.96215        0.30201       -1.28397
C         -3.29633       -0.24148       -2.50214
C         -4.61565       -0.55194       -2.78143
C         -5.61279       -0.30014       -1.84928
C         -5.25747        0.25491       -0.62747
C         -3.93826        0.55742       -0.35123
H         -3.66590        1.01758        0.58254
H         -6.02115        0.45101        0.10566
C         -7.02877       -0.65716       -2.14100
H         -4.87882       -0.99098       -3.72855
H         -2.52244       -0.42487       -3.23013
Cl        -2.29970        2.29063        1.62187
H          1.91823       -6.12743       -1.70931
H          0.61256       -6.31762        0.65324
H          3.06836       -6.79437        0.34176
H         -0.19924       -4.19389        1.43174
H         -3.43240       -4.74590        0.36287
H         -2.75204       -2.33523       -1.39841
H         -4.48321       -3.16286        2.52465
H         -5.72011       -3.71877        0.57164
H          6.37481       -2.06055       -3.32870
H          6.57912       -3.22999       -2.02748
H          5.34403       -3.49167       -3.26043
H          5.20585        4.78135        3.83940
H          5.99396        4.88994        2.26380
H          4.52409        5.81262        2.58570
H         -1.28955        6.65588       -3.83940
H         -0.03443        6.92342       -2.62791
H          0.38072        6.22500       -4.19454
H         -7.26682       -0.48955       -3.19231
H         -7.21843       -1.70770       -1.91647
H         -7.71810       -0.05647       -1.54607
