111
-148.55370186
P         -1.76153        2.75511        0.42582
P         -0.41027       -0.10101        0.53689
C         -1.32520        2.02099        2.02928
C         -0.80519        0.74477        2.07797
C         -0.68309        4.21684        0.07946
C          0.22076        3.94816       -1.10522
C         -1.47920        2.74286        3.19572
H         -1.84462        3.75563        3.15017
C         -1.13892        2.17203        4.41006
H         -1.26326        2.73429        5.32111
C         -0.63393        0.88656        4.45586
H         -0.36376        0.44491        5.40091
C         -0.45583        0.17391        3.28364
H         -0.02824       -0.81648        3.29598
Pd        -1.67897        0.98137       -1.05995
Cl        -3.12230        2.09734       -2.35924
Cl        -1.41948       -0.82470       -2.37207
C         -1.69162        5.36243       -0.13825
C         -3.42452        3.57276        0.42581
H         -0.36863        3.71380       -1.99404
H          0.84366        4.81510       -1.33756
H          0.88195        3.09917       -0.91937
H         -1.83746        5.50117       -1.21826
H         -1.27537        6.31372        0.22614
H         -3.85887        3.36668       -0.56079
C         -3.06422        5.06544        0.53072
C         -4.33840        3.05136        1.51443
H         -0.09802        4.38540        0.99289
H         -3.02841        5.34988        1.59121
H         -3.86002        5.68311        0.08693
H         -4.47769        1.97127        1.42914
H         -3.92799        3.25075        2.50444
H         -5.32199        3.52425        1.46820
C         -0.48704       -4.64270        0.83473
C         -1.70719       -3.92528        0.73778
C         -1.65478       -2.54155        0.68374
C         -0.45336       -1.88428        0.64883
C          0.72871       -2.57785        0.63338
C          0.74750       -3.96143        0.68370
O         -0.50131       -6.03479        1.11624
C         -3.07391       -4.62679        0.70010
H         -2.55645       -1.95374        0.66292
H          1.64607       -2.01772        0.57660
C          2.09505       -4.69331        0.58145
C          3.64413        1.35747       -0.94099
C          2.78834        0.63804       -1.81365
C          1.58121        0.18192       -1.31496
C          1.18643        0.47590       -0.03705
C          1.95655        1.26885        0.77209
C          3.17663        1.75754        0.33725
O          4.97776        1.64969       -1.33213
C          3.14827        0.34419       -3.27803
H          0.91019       -0.39441       -1.92748
H          1.58880        1.50367        1.75514
C          3.97985        2.69162        1.25523
C         -2.97357       -5.99674        0.00453
C         -3.59851       -4.79871        2.13337
C         -4.09374       -3.78835       -0.10387
C          3.08483       -3.88852       -0.29265
C          2.69553       -4.85319        1.98602
C          1.92905       -6.07121       -0.08484
C         -0.46152       -6.34464        2.50342
H         -3.95392       -6.46401       -0.08484
H         -2.55633       -5.88873       -0.99608
H         -2.33429       -6.67795        0.56075
H         -4.57460       -5.28316        2.13638
H         -2.92106       -5.40451        2.73049
H         -3.69972       -3.83162        2.62535
H         -5.02180       -4.34108       -0.24773
H         -4.34951       -2.86307        0.41006
H         -3.69789       -3.53640       -1.08742
H          3.38495       -2.95777        0.18649
H          3.99390       -4.46093       -0.47569
H          2.63998       -3.64926       -1.25810
H          2.84906       -3.88030        2.45243
H          2.03766       -5.42968        2.63222
H          3.65771       -5.36298        1.94360
H          2.89337       -6.56056       -0.21938
H          1.30701       -6.73010        0.51580
H          1.46035       -5.96981       -1.06312
H          0.42916       -6.93349        2.72177
H         -0.44738       -5.43003        3.09753
H         -1.33610       -6.93791        2.76993
C          5.91287        0.63126       -1.00002
C          4.03251        1.45817       -3.86694
C          3.87160       -1.00826       -3.36158
C          1.87152        0.27731       -4.14774
C          4.79500        3.70625        0.43311
C          3.03536        3.50730        2.16746
C          4.91448        1.85369        2.14028
H          3.54337        2.42695       -3.77058
H          4.99048        1.51631       -3.35639
H          4.23247        1.28253       -4.92364
H          4.13932       -1.24509       -4.39096
H          4.78316       -1.00538       -2.76853
H          3.23457       -1.80856       -2.98622
H          2.12636        0.20033       -5.20437
H          1.26052       -0.59015       -3.90317
H          1.26402        1.17208       -4.01412
H          5.54390        3.20972       -0.17909
H          4.14336        4.27396       -0.23037
H          5.31434        4.41020        1.08288
H          2.28297        4.02915        1.57729
H          2.52562        2.87406        2.89208
H          3.59308        4.25385        2.73239
H          5.61574        1.27968        1.53933
H          4.34327        1.15036        2.74585
H          5.48947        2.48959        2.81296
H          6.69637        1.04811       -0.36736
H          5.41614       -0.18505       -0.47395
H          6.37645        0.24868       -1.90911
