59
-75.80537666
Cl         1.74726        0.34418        2.28162
P          1.62447       -0.08841       -0.84804
P         -1.59777       -0.13306       -0.76537
C          0.59214        0.26355       -2.33920
H          0.33024        1.32434       -2.34604
H          1.19036        0.06718       -3.23451
C         -0.64341       -0.58851       -2.27676
H         -0.38099       -1.64784       -2.21338
H         -1.28878       -0.45678       -3.15095
C          2.64062       -1.60291       -1.21238
H          2.52979       -1.73820       -2.29702
C          2.99976        1.13438       -0.59750
H          3.06435        1.29700        0.48508
C         -3.00596       -1.28392       -0.43262
H         -3.20690       -1.21232        0.64361
C         -2.57240        1.40858       -1.10184
H         -2.22881        1.78603       -2.07250
C          4.08090       -1.15655       -0.90973
H          4.33898       -1.42775        0.12120
H          4.79350       -1.70561       -1.54384
C          4.24439        0.37561       -1.08906
H          4.40289        0.60632       -2.15151
H          5.14462        0.73924       -0.57051
C         -4.14658       -0.62716       -1.22756
H         -4.09427       -0.97269       -2.26979
H         -5.12334       -0.96810       -0.85054
C         -4.03752        0.92258       -1.18104
H         -4.57756        1.29086       -0.29840
H         -4.54755        1.37602       -2.04381
C          2.18660       -2.87444       -0.49587
H          2.79492       -3.71711       -0.85280
H          1.16349       -3.10905       -0.81607
C          2.76654        2.46547       -1.30308
H          3.70067        3.04428       -1.29309
H          2.55873        2.27447       -2.36377
C         -2.70330       -2.72810       -0.80813
H         -3.63379       -3.31216       -0.78275
H         -2.37044       -2.76306       -1.85331
C         -2.33252        2.44465       -0.01012
H         -2.69297        2.03888        0.94486
H         -1.25318        2.58074        0.13232
C          2.24947       -2.81740        1.02316
H          1.84085       -3.72119        1.48134
H          1.68418       -1.97390        1.41629
H          3.27279       -2.71179        1.38540
C          1.64781        3.28063       -0.67540
H          0.70757        2.73098       -0.68655
H          1.48268        4.22563       -1.19788
H          1.86697        3.51416        0.36827
C         -1.66628       -3.35767        0.10856
H         -1.39797       -4.36968       -0.20284
H         -2.03023       -3.41368        1.13630
H         -0.75319       -2.76276        0.13217
C         -2.99198        3.78437       -0.30198
H         -2.80596        4.51325        0.49012
H         -2.61915        4.21094       -1.23516
H         -4.07361        3.68192       -0.40524
Cl        -1.60110        0.05616        2.37947
Pd         0.04256        0.04554        0.85592
