111
-148.55546145
P         -2.75782        1.82108       -0.30735
P          0.10982        0.61163        0.23583
C         -1.88847        2.23050        1.23060
C         -0.61697        1.74088        1.43890
C         -3.75413        3.24237       -0.94773
C         -3.07275        3.91258       -2.12083
C         -2.48887        3.01673        2.19307
H         -3.49030        3.38181        2.03473
C         -1.80743        3.31653        3.36024
H         -2.27533        3.93041        4.11247
C         -0.53095        2.82791        3.56407
H         -0.00242        3.05876        4.47431
C          0.06480        2.03267        2.60166
H          1.05313        1.62712        2.75173
Pd        -1.15885        0.89535       -1.68328
Cl        -2.64320        0.86357       -3.36279
Cl         0.52011       -0.02302       -2.86116
C         -5.10719        2.58505       -1.27778
C         -4.08513        0.54600       -0.10969
H         -3.66376        4.74892       -2.50132
H         -2.08636        4.29181       -1.84321
H         -2.93301        3.20857       -2.94232
H         -5.09993        2.27526       -2.33202
H         -5.92259        3.31930       -1.19071
H         -3.91898       -0.19005       -0.90783
C         -5.37484        1.34498       -0.37724
C         -4.02494       -0.11417        1.25070
H         -3.86630        3.94674       -0.11381
H         -5.79192        1.67475        0.58423
H         -6.14218        0.69428       -0.82351
H         -3.07442       -0.63019        1.39739
H         -4.12113        0.62731        2.04595
H         -4.82768       -0.84435        1.37696
C         -1.20135       -3.62461        1.26466
C         -0.75330       -3.31973       -0.04593
C         -0.36448       -2.02026       -0.31684
C         -0.35168       -1.06506        0.66382
C         -0.67220       -1.38162        1.95742
C         -1.06265       -2.66506        2.30057
O         -1.82771       -4.87157        1.52849
C         -0.73019       -4.35454       -1.18047
H         -0.07858       -1.72294       -1.31067
H         -0.63008       -0.60275        2.69832
C         -1.36181       -2.98415        3.77334
C          4.64110        0.95978       -0.01788
C          3.82905        1.81795       -0.80336
C          2.45262        1.71580       -0.68089
C          1.88687        0.75765        0.11800
C          2.66536       -0.14244        0.79770
C          4.04706       -0.09448        0.72152
O          6.04335        1.17500        0.05227
C          4.42073        2.85233       -1.77386
H          1.79858        2.38179       -1.21695
H          2.17266       -0.89307        1.39148
C          4.87190       -1.17163        1.44329
C         -2.07485       -4.31977       -1.92277
C          0.39771       -4.03223       -2.18752
C         -0.45760       -5.76877       -0.63752
C         -0.47211       -2.12959        4.70487
C         -2.83466       -2.66713        4.07410
C         -1.05949       -4.45897        4.09511
C         -3.23885       -4.85560        1.35201
H         -2.26154       -3.32803       -2.33441
H         -2.08568       -5.03439       -2.74525
H         -2.89927       -4.56151       -1.25613
H          0.50309       -4.83238       -2.91969
H          0.19469       -3.11739       -2.74217
H          1.35308       -3.91803       -1.67600
H         -0.37987       -6.49188       -1.44902
H          0.47434       -5.78994       -0.07354
H         -1.25462       -6.10056        0.02318
H          0.57945       -2.23313        4.43812
H         -0.73533       -1.07391        4.65839
H         -0.58669       -2.44189        5.74264
H         -3.07686       -2.88719        5.11348
H         -3.04668       -1.61335        3.89498
H         -3.50060       -3.25064        3.44272
H         -1.70735       -5.12842        3.53489
H         -0.02824       -4.70309        3.84220
H         -1.20768       -4.66749        5.15438
H         -3.52154       -5.59261        0.60052
H         -3.72819       -5.11973        2.28934
H         -3.57172       -3.86659        1.03423
C          6.44393        2.04991        1.09913
C          5.74678        2.35136       -2.37478
C          3.45736        3.10184       -2.95689
C          4.64335        4.17903       -1.03267
C          4.08881       -2.50360        1.50941
C          6.18411       -1.46010        0.69174
C          5.17249       -0.70761        2.87632
H          5.60605        1.38788       -2.86354
H          6.13285        3.05362       -3.11317
H          6.50820        2.22852       -1.60850
H          2.55089        3.61388       -2.63774
H          3.92819        3.72794       -3.71441
H          3.17217        2.16195       -3.42892
H          5.04978        4.93676       -1.70208
H          3.70497        4.55553       -0.62617
H          5.33697        4.05601       -0.20437
H          3.22295       -2.43147        2.16603
H          3.74419       -2.80023        0.51903
H          4.71827       -3.30370        1.89822
H          5.98004       -1.74774       -0.33909
H          6.83036       -0.58609        0.67196
H          6.73842       -2.26916        1.16672
H          4.24808       -0.53044        3.42566
H          5.74165        0.21892        2.87934
H          5.74818       -1.45834        3.41712
H          6.98177        2.89962        0.67895
H          5.57357        2.40668        1.65132
H          7.11522        1.52464        1.77824
