58
-89.86679857
P          1.69808       -0.01722        0.75870
C          1.91101        1.76674        0.72801
C          3.00461        2.32208        1.35277
C          3.16670        3.69631        1.36380
C          2.22660        4.50529        0.75636
C          1.12575        3.94411        0.14074
C          0.96998        2.57062        0.12910
H          0.10546        2.12515       -0.33104
H          3.72627        1.67821        1.83058
C          3.21154       -0.83879        0.24126
C          3.40803       -2.16619        0.54788
C          4.55713       -2.80802        0.12136
C          5.49823       -2.11762       -0.61643
C          5.29164       -0.78953       -0.93233
C          4.14203       -0.15080       -0.50383
H          3.95981        0.88073       -0.75889
H          2.65774       -2.70071        1.10816
C          1.31258       -0.49208        2.48703
C          0.09865        0.24776        3.02817
C         -1.22363       -0.36964        2.60649
P         -1.64697       -0.18994        0.82386
C         -3.00497       -1.32795        0.53241
C         -4.27563       -0.84749        0.31326
C         -5.31427       -1.73149        0.08314
C         -5.07075       -3.09086        0.07393
C         -3.79358       -3.56792        0.29434
C         -2.75674       -2.68129        0.52517
H         -1.75204       -3.03791        0.69027
H         -4.44861        0.21655        0.31809
C         -2.12477        1.49046        0.40067
C         -2.37159        1.77152       -0.92405
C         -2.70995        3.05543       -1.30828
C         -2.80071        4.05259       -0.35780
C         -2.55771        3.76710        0.97146
C         -2.21908        2.48112        1.35213
H         -2.02604        2.25230        2.38695
H         -2.28648        0.97903       -1.65056
Pd         0.02851       -0.65029       -0.72248
Cl         1.59819       -1.28167       -2.20121
Cl        -1.62205       -1.21017       -2.15188
H         -1.22520       -1.44000        2.82174
H         -2.06200        0.05718        3.16207
H          0.14812        0.27475        4.12818
H          0.13969        1.29845        2.71076
H          1.16852       -1.57260        2.53320
H          2.21175       -0.26255        3.06424
H          4.02415        4.13363        1.84835
H          0.38407        4.57305       -0.32343
H          4.71338       -3.84736        0.35938
H          6.02046       -0.25259       -1.51693
H         -6.31020       -1.35904       -0.09199
H         -3.60266       -4.62840        0.28222
H         -2.89882        3.27585       -2.34600
H         -2.62837        4.54643        1.71239
H          2.35023        5.57595        0.76633
H          6.39183       -2.61800       -0.95230
H         -5.87849       -3.78076       -0.10858
H         -3.06220        5.05548       -0.65367
