64
-97.21456926
Cl        -1.62050       -1.27383       -2.56778
Cl         1.55727       -1.36962       -2.94251
P          1.92734       -0.65560        0.25542
C          2.11562       -2.33229        1.01983
C          3.71411       -0.27094       -0.08173
P         -1.26240       -0.12056        0.44789
C          1.28866        0.57849        1.44190
C         -0.13376        0.83921        1.52498
C         -0.33262        1.95027        2.44417
C          0.97570        2.38811        2.89897
C          1.98005        1.52652        2.30048
H         -1.29328        2.35633        2.76665
H          1.16813        3.19603        3.60862
Pd         0.16067       -0.92566       -1.25171
H          3.06019        1.59060        2.44465
C         -5.01140        2.14074       -0.85248
C         -4.03511        2.80344       -0.13629
C         -2.89610        2.12905        0.26220
C         -2.72890        0.80064       -0.05940
C         -3.70591        0.13842       -0.76761
C         -4.84901        0.80680       -1.16793
H         -5.90002        2.66448       -1.16529
H         -4.15932        3.84487        0.11172
H         -2.13076        2.64153        0.81712
H         -3.56724       -0.90181       -1.01373
H         -5.60870        0.28656       -1.72791
C         -2.61209       -3.93437        2.51299
C         -2.37726       -2.79419        3.25702
C         -1.97387       -1.63065        2.62633
C         -1.80639       -1.62019        1.26101
C         -2.04658       -2.75028        0.51453
C         -2.44962       -3.91451        1.14137
H         -2.92607       -4.84117        3.00380
H         -2.50652       -2.81000        4.32676
H         -1.78151       -0.73189        3.19073
H         -1.92769       -2.70885       -0.55637
H         -2.63805       -4.80217        0.56014
C          4.06143       -0.35525       -1.55214
H          3.89881        0.74218        0.29891
C          4.45170       -1.32667        0.76517
H          4.65082       -0.92836        1.77090
C          3.62091       -2.63224        0.88297
H          5.43837       -1.53213        0.32478
C          1.63420       -2.31252        2.45436
H          1.51422       -3.02840        0.41913
H          3.95724       -3.23022        1.74218
H          3.79974       -3.25928       -0.00256
H          2.21006       -1.59484        3.04208
H          0.58502       -2.01890        2.51743
H          1.73944       -3.29169        2.92747
H          5.12294       -0.16411       -1.72380
H          3.83896       -1.35070       -1.93960
H          3.49369        0.36110       -2.14748
Fe         0.84506        2.47439        0.85496
C          2.22501        3.21313       -0.47867
C          1.39907        4.29444        0.03273
C          0.01644        4.02963       -0.32354
C         -0.01284        2.73077       -0.97206
C          1.34713        2.24812       -1.11130
H          3.31400        3.15103       -0.41943
H          1.76548        5.19076        0.53797
H         -0.84267        4.66750       -0.10826
H         -0.89587        2.24681       -1.39466
H          1.64523        1.34137       -1.63992
