111
-148.55519089
P         -2.76500        1.74261       -0.20098
P          0.16877        0.62826        0.15734
C         -1.81830        2.17646        1.28139
C         -0.51469        1.74533        1.40248
C         -3.83717        3.14308       -0.76117
C         -3.22609        3.88743       -1.92815
C         -2.38999        2.93605        2.28215
H         -3.41542        3.25444        2.19066
C         -1.64836        3.27017        3.40205
H         -2.09366        3.86309        4.18422
C         -0.33954        2.84362        3.51883
H          0.23757        3.10189        4.39146
C          0.22677        2.07473        2.51847
H          1.24149        1.72163        2.60522
Pd        -1.23187        0.87763       -1.68830
Cl        -2.77643        0.94541       -3.31054
Cl         0.36427       -0.06034       -2.96014
C         -5.17197        2.44002       -1.06836
C         -4.04422        0.42773        0.05316
H         -3.86378        4.71284       -2.25294
H         -2.24674        4.29638       -1.66868
H         -3.08753        3.22440       -2.78284
H         -5.17858        2.14405       -2.12658
H         -6.01188        3.14188       -0.95164
H         -3.88010       -0.31140       -0.74257
C         -5.36933        1.18013       -0.17721
C         -3.91852       -0.21446        1.41744
H         -3.95192        3.81185        0.10119
H         -5.77715        1.48294        0.79698
H         -6.12123        0.50536       -0.61371
H         -4.69310       -0.96799        1.57778
H         -2.94792       -0.69834        1.53814
H         -4.01229        0.53271        2.20760
C         -1.22799       -3.55743        1.28007
C         -0.89027       -3.26443       -0.06566
C         -0.45102       -1.98763       -0.36478
C         -0.29533       -1.04225        0.61346
C         -0.50962       -1.35451        1.93008
C         -0.93291       -2.61934        2.30292
O         -1.90358       -4.76624        1.59493
C         -1.05405       -4.28024       -1.20581
H         -0.24255       -1.69955       -1.37994
H         -0.36582       -0.58425        2.66740
C         -1.10498       -2.93545        3.79639
C          4.70651        0.94598       -0.09776
C          3.91185        1.42851       -1.16931
C          2.53370        1.35325       -1.05068
C          1.94983        0.74583        0.02961
C          2.71653        0.17191        1.01057
C          4.09949        0.23064        0.96537
O          6.10375        1.20067       -0.07421
C          4.52000        2.02264       -2.45007
H          1.89234        1.75464       -1.81568
H          2.21369       -0.33055        1.81891
C          4.91576       -0.45053        2.07497
C         -2.46350       -4.14464       -1.80242
C         -0.01901       -4.01674       -2.32353
C         -0.82235       -5.71791       -0.70747
C         -0.87760       -4.43155        4.07920
C         -0.06694       -2.15729        4.63691
C         -2.51399       -2.51926        4.24554
C         -3.32141       -4.65778        1.56318
H         -2.62527       -3.13581       -2.18192
H         -2.60769       -4.84263       -2.62661
H         -3.22844       -4.34341       -1.05553
H         -0.04463       -4.81060       -3.06955
H         -0.21766       -3.08216       -2.84595
H          0.99015       -3.97337       -1.91492
H          0.15958       -5.80971       -0.24451
H         -1.56689       -6.00702        0.03004
H         -0.87835       -6.43132       -1.52928
H         -0.93309       -4.64157        5.14705
H         -1.62419       -5.04735        3.58423
H          0.10304       -4.74451        3.72228
H         -0.25350       -1.08461        4.61875
H         -0.10134       -2.47009        5.68025
H          0.94230       -2.33609        4.26701
H         -2.66651       -2.73564        5.30256
H         -2.66684       -1.45079        4.09530
H         -3.27956       -3.04584        3.68038
H         -3.61979       -3.64885        1.27551
H         -3.72651       -5.37365        0.84809
H         -3.72937       -4.89021        2.54667
C          6.45937        2.43468        0.53631
C          3.59749        1.75743       -3.66237
C          4.68570        3.54021       -2.28149
C          5.87784        1.37232       -2.77255
C          4.14559       -1.65583        2.66160
C          6.24869       -0.99152        1.52697
C          5.17732        0.55765        3.20419
H          3.34799        0.69919       -3.73518
H          2.66937        2.32277       -3.59525
H          4.08436        2.05169       -4.59177
H          5.10494        3.98928       -3.18151
H          3.72389        4.01321       -2.08475
H          5.34586        3.77519       -1.45008
H          6.61231        1.58138       -1.99889
H          5.77530        0.29056       -2.85175
H          6.27730        1.74531       -3.71529
H          3.82714       -2.33523        1.87133
H          4.77403       -2.21738        3.35249
H          3.26486       -1.33845        3.21801
H          6.07300       -1.67507        0.69700
H          6.88519       -0.18673        1.16733
H          6.80056       -1.52836        2.29815
H          5.74401        0.09883        4.01401
H          4.23828        0.92704        3.61588
H          5.74049        1.41516        2.84420
H          6.98144        3.06326       -0.18482
H          5.56903        2.95304        0.89446
H          7.13225        2.24684        1.37285
