111
-148.55514779
P         -2.56709        2.06403        1.06189
P          0.10210        0.41498        0.49831
C         -1.45164        1.64378        2.42902
C         -0.27710        0.96907        2.17221
C         -3.33950        3.73105        1.28159
C         -2.72966        4.74948        0.34330
C         -1.77845        1.98535        3.72571
H         -2.70718        2.49455        3.92475
C         -0.92068        1.65778        4.76175
H         -1.17537        1.92450        5.77449
C          0.25907        0.98773        4.50027
H          0.92550        0.73074        5.30712
C          0.57986        0.63830        3.20074
H          1.48854        0.10016        2.97969
Pd        -1.36223        1.60163       -0.84490
Cl        -3.01697        2.49178       -2.06423
Cl         0.01317        1.08024       -2.54877
C         -4.83484        3.44923        1.04288
C         -4.08071        1.00347        0.99013
H         -3.18655        5.73370        0.47051
H         -1.65451        4.84949        0.51054
H         -2.87245        4.45273       -0.69669
H         -5.06474        3.64156       -0.01421
H         -5.45516        4.15683        1.61381
H         -4.19285        0.70497       -0.06089
C         -5.20328        1.97843        1.39145
C         -3.94596       -0.21130        1.88236
H         -3.16763        4.01919        2.32642
H         -5.37812        1.89079        2.47263
H         -6.15165        1.68738        0.91463
H         -4.85002       -0.82433        1.86279
H         -3.10651       -0.83694        1.57167
H         -3.76786        0.08570        2.91756
C         -1.11563       -3.92875       -0.11051
C         -1.08440       -3.39399        1.20343
C         -0.70942       -2.07074        1.36478
C         -0.44880       -1.27505        0.28049
C         -0.58368       -1.75824       -0.99331
C         -0.95545       -3.06983       -1.22765
O         -1.26239       -5.32797       -0.30462
C         -1.40513       -4.23758        2.44693
H         -0.59817       -1.64610        2.34663
H         -0.37630       -1.08707       -1.80830
C         -1.13934       -3.54029       -2.67827
C          4.48007        0.69389       -0.71038
C          3.91650       -0.56160       -0.35989
C          2.58014       -0.59872       -0.00061
C          1.83687        0.54904        0.09141
C          2.40828        1.77538       -0.12192
C          3.74117        1.88663       -0.48492
O          5.74004        0.74875       -1.35969
C          4.69330       -1.88896       -0.35583
H          2.09540       -1.54066        0.19341
H          1.79205        2.65292       -0.02046
C          4.33245        3.29974       -0.62266
C         -0.11506       -4.89597        2.95891
C         -1.98820       -3.35384        3.57323
C         -2.46061       -5.31257        2.13014
C         -1.65217       -2.38016       -3.56283
C          0.21214       -4.01883       -3.23042
C         -2.18253       -4.66836       -2.77042
C         -0.02952       -6.03534       -0.35552
H         -0.30811       -5.49237        3.85026
H          0.31985       -5.54874        2.20585
H          0.62862       -4.14063        3.21217
H         -1.24979       -2.65480        3.96296
H         -2.84530       -2.78461        3.21523
H         -2.32142       -3.96606        4.41092
H         -2.73549       -5.86816        3.02638
H         -3.36263       -4.85633        1.72363
H         -2.09103       -6.02851        1.40021
H         -2.54352       -1.92720       -3.12959
H         -0.90012       -1.60258       -3.68677
H         -1.90882       -2.73760       -4.55968
H          0.60774       -4.84486       -2.64403
H          0.11577       -4.35373       -4.26284
H          0.94544       -3.21305       -3.20410
H         -3.13173       -4.34852       -2.34180
H         -2.35791       -4.95633       -3.80666
H         -1.85698       -5.55559       -2.23340
H          0.80802       -5.35229       -0.20749
H         -0.01572       -6.80079        0.42024
H          0.07097       -6.52854       -1.32215
C          5.63266        0.66604       -2.77124
C          6.21564       -1.67791       -0.42299
C          4.40034       -2.65049        0.95632
C          4.23775       -2.74955       -1.54653
C          3.91898        4.15075        0.59846
C          5.87053        3.29105       -0.66255
C          3.78824        3.95737       -1.90180
H          6.51144       -1.23424       -1.37055
H          6.54681       -1.01355        0.37439
H          6.74817       -2.62328       -0.32166
H          4.63965       -2.03217        1.82103
H          3.35431       -2.94349        1.03071
H          4.99652       -3.56055        1.01842
H          4.76055       -3.70555       -1.55900
H          3.16857       -2.95304       -1.49341
H          4.43272       -2.24776       -2.49233
H          4.38759        5.13394        0.56316
H          2.84230        4.30673        0.63808
H          4.22405        3.66613        1.52550
H          6.26934        4.30521       -0.66199
H          6.27445        2.76590        0.20227
H          6.23912        2.79389       -1.55660
H          2.70002        4.00705       -1.88150
H          4.07679        3.39442       -2.78720
H          4.16912        4.97249       -2.01051
H          6.62691        0.73785       -3.21263
H          5.17934       -0.28166       -3.05698
H          5.01178        1.47756       -3.14693
