59
-75.79768279
Cl         1.57830        0.48275        2.29764
P          1.53145       -0.02996       -0.88433
P         -1.66847       -0.12894       -0.80895
C          0.50898        0.09651       -2.41758
H          0.22474        1.14268       -2.55880
H          1.11840       -0.19886       -3.27759
C         -0.70907       -0.76657       -2.25045
H         -0.42900       -1.80488       -2.05520
H         -1.35422       -0.75626       -3.13459
C          2.75046       -1.41336       -1.08338
H          2.77554       -1.58507       -2.16818
C          2.70639        1.38351       -0.64527
H          2.62385        1.67432        0.40892
C         -3.13598       -1.17624       -0.40095
H         -3.29318       -1.07243        0.67957
C         -2.54277        1.41112       -1.36148
H         -2.27805        1.50905       -2.42279
C          4.07964       -0.77546       -0.64400
H          4.23050       -0.94761        0.42881
H          4.92638       -1.26955       -1.14440
C          4.08504        0.75404       -0.91640
H          4.35813        0.93695       -1.96463
H          4.86022        1.25561       -0.31742
C         -4.27009       -0.47504       -1.16864
H         -4.31415       -0.88621       -2.18687
H         -5.24404       -0.70955       -0.71204
C         -4.03914        1.06063       -1.23382
H         -4.44781        1.52361       -0.32795
H         -4.60729        1.50507       -2.06477
C          2.35970       -2.71168       -0.37333
H          3.02200       -3.51817       -0.71802
H          1.35623       -3.00262       -0.71175
C          2.36667        2.57008       -1.53827
H          2.42711        2.25292       -2.58772
H          1.31692        2.85127       -1.37898
C         -2.93065       -2.64326       -0.75562
H         -3.88850       -3.17368       -0.66108
H         -2.66343       -2.71916       -1.81753
C         -2.08280        2.65072       -0.59414
H         -0.99607        2.75224       -0.72003
H         -2.51305        3.54539       -1.06559
C          2.39049       -2.65828        1.14737
H          3.40447       -2.53076        1.52902
H          1.99612       -3.57395        1.59436
H          1.79757       -1.83080        1.53328
C          3.26792        3.77192       -1.29705
H          3.20431        4.10927       -0.26077
H          3.00289        4.61796       -1.93530
H          4.31407        3.52967       -1.49237
C         -1.87529       -3.31497        0.11043
H         -2.15596       -3.28760        1.16500
H         -0.91277       -2.80910        0.02754
H         -1.72212       -4.36121       -0.16345
C         -2.42056        2.64773        0.89065
H         -2.07900        1.73399        1.37510
H         -1.95643        3.48615        1.41529
H         -3.49465        2.71958        1.06639
Cl        -1.61756       -0.36246        2.38023
Pd        -0.02920       -0.05077        0.82688
