64
-97.21323761
Cl        -1.62060       -1.32163       -2.55885
Cl         1.58041       -1.19184       -2.94826
P          1.93395       -0.65658        0.24821
C          2.11869       -2.33695        1.00634
C          3.72487       -0.26634       -0.06539
P         -1.26686       -0.13134        0.45485
C          1.28929        0.56952        1.43988
C         -0.13318        0.83075        1.52406
C         -0.33701        1.93017        2.45516
C          0.97253        2.37798        2.89497
C          1.97941        1.51752        2.29933
H         -1.29796        2.33167        2.78140
H          1.16431        3.18528        3.60537
Pd         0.15213       -0.93424       -1.24561
H          3.05945        1.58642        2.44146
C         -5.00094        2.14478       -0.86118
C         -4.02893        2.80082       -0.13311
C         -2.89445        2.12148        0.26989
C         -2.72741        0.79487       -0.05910
C         -3.69976        0.13947       -0.77993
C         -4.83851        0.81272       -1.18448
H         -5.88612        2.67230       -1.17732
H         -4.15294        3.84091        0.12056
H         -2.13197        2.62892        0.83335
H         -3.56067       -0.89898       -1.03303
H         -5.59473        0.29780       -1.75398
C         -2.62657       -3.93319        2.53467
C         -2.38435       -2.79242        3.27545
C         -1.97818       -1.63193        2.64096
C         -1.81525       -1.62510        1.27506
C         -2.06234       -2.75588        0.53190
C         -2.46843       -3.91703        1.16249
H         -2.94276       -4.83760        3.02844
H         -2.50992       -2.80550        4.34566
H         -1.77968       -0.73294        3.20281
H         -1.94566       -2.71737       -0.53939
H         -2.66248       -4.80512        0.58377
C          4.08947       -0.32479       -1.53251
H          3.90410        0.74083        0.33309
C          4.45653       -1.33254        0.77338
H          4.65152       -0.94565        1.78435
C          3.62380       -2.63798        0.87315
H          5.44506       -1.53457        0.33566
C          1.63259       -2.32255        2.43938
H          1.51868       -3.03031        0.40109
H          3.95529       -3.24573        1.72738
H          3.80573       -3.25551       -0.01840
H          0.58333       -2.02866        2.50015
H          1.73578       -3.30357        2.90907
H          2.20682       -1.60744        3.03180
H          5.15337       -0.13340       -1.68834
H          3.86844       -1.31209       -1.94110
H          3.53037        0.40480       -2.12004
Fe         0.84892        2.46298        0.84037
C          2.22378        3.16901       -0.51525
C          1.41580        4.24849        0.02777
C          0.02475        4.00222       -0.31378
C         -0.03406        2.73071       -1.01034
C          1.31625        2.21694       -1.12611
H          3.31199        3.08736       -0.46675
H          1.79822        5.13309        0.54247
H         -0.82135        4.65374       -0.08607
H         -0.92711        2.26716       -1.43386
H          1.59695        1.31580       -1.67464
