105
-153.06797044
Cl         0.19075        2.72393        2.78770
Pd        -0.20820        1.72776        0.80336
P         -0.72504        0.54467       -1.17668
N          0.38509       -0.74078       -1.63980
C          0.54567       -2.11479       -1.41969
C          0.02515       -2.82227       -0.30390
C          0.39587       -4.16821       -0.09800
C         -0.00556       -4.85661        1.18581
C          0.88476       -6.05784        1.53432
C          1.00514       -6.99622        0.32989
C          1.62097       -6.26994       -0.87804
C          1.19528       -4.82870       -1.03409
C          1.66590       -4.12605       -2.13586
C          1.36714       -2.80048       -2.31321
H          1.76811       -2.26377       -3.15572
H          2.29735       -4.63355       -2.84558
H          2.71467       -6.29741       -0.80144
H          1.59031       -7.88956        0.58988
H          1.88243       -5.69992        1.81794
H          0.00799       -4.12660        2.00494
C         -0.72123       -2.11534        0.76375
C          0.00299       -1.23436        1.60267
C         -0.65994       -0.61240        2.65982
C         -1.98714       -0.86225        2.89652
C         -2.71080       -1.74489        2.10151
C         -4.15417       -2.00967        2.46790
C         -4.91150       -2.97574        1.53517
C         -3.97712       -4.02689        0.92561
C         -2.84646       -3.33155        0.15712
C         -2.07632       -2.37541        1.02845
H         -2.17430       -4.06160       -0.30712
H         -4.52828       -4.72312        0.27784
H         -5.38247       -2.40656        0.72484
H         -4.67953       -1.04768        2.51957
H         -2.48518       -0.37332        3.71656
H         -0.11422        0.07840        3.27758
N          1.35541       -0.98944        1.34432
P          1.86501        0.68056        1.10339
C          2.67516        0.88527       -0.48004
C          2.35347        1.97128       -1.25982
C          2.83428        2.05245       -2.55290
C          3.63274        1.04463       -3.07428
C          3.97832       -0.02396       -2.25844
C          3.50006       -0.10396       -0.96282
H          3.74095       -0.95023       -0.33926
H          4.61345       -0.80090       -2.64865
C          4.13927        1.12845       -4.47183
H          2.57166        2.89194       -3.17388
H          1.70607        2.74036       -0.86912
C          2.83498        1.33343        2.45205
C          2.90143        0.61687        3.62192
C          3.62193        1.11630        4.69228
C          4.27038        2.34058        4.59502
C          4.19554        3.04439        3.39986
C          3.47458        2.54326        2.33082
H          3.40314        3.09142        1.40472
H          4.70260        3.99010        3.31273
C          5.06292        2.87126        5.73865
H          3.68220        0.55824        5.61094
H          2.38905       -0.32975        3.68859
H          1.76010       -1.51593        0.58306
H          1.20436       -0.23871       -1.96223
C         -0.59439        1.74970       -2.50657
C         -0.90899        3.07531       -2.32785
C         -0.76357        3.96864       -3.37133
C         -0.31441        3.53831       -4.61224
C         -0.01002        2.19472       -4.78091
C         -0.15520        1.30468       -3.73176
H          0.08467        0.26167       -3.86142
H          0.34835        1.85060       -5.73602
C         -0.12333        4.50507       -5.72852
H         -0.99866        5.00941       -3.22745
H         -1.27651        3.40530       -1.37192
C         -2.40204       -0.07328       -1.27172
C         -2.67844       -0.94146       -2.30189
C         -3.97434       -1.38579       -2.50212
C         -4.99911       -0.96856       -1.66402
C         -4.70248       -0.08074       -0.63808
C         -3.41016        0.37112       -0.45038
H         -3.19086        1.10146        0.30880
H         -5.49297        0.26758        0.00442
C         -6.39066       -1.45106       -1.88341
H         -4.19575       -2.06481       -3.30769
H         -1.87636       -1.26486       -2.94702
Cl        -2.06186        2.97930        0.59134
H          1.38105       -6.80664       -1.80478
H          0.50011       -6.59311        2.41400
H          0.00762       -7.36743        0.06258
H         -1.04532       -5.19109        1.10622
H         -3.54782       -4.64037        1.72740
H         -3.27298       -2.76996       -0.67788
H         -4.17413       -2.40428        3.49099
H         -5.74213       -3.45931        2.06802
H          4.26277        0.13506       -4.90548
H          3.44745        1.68261       -5.10796
H          5.10550        1.63357       -4.50445
H          5.06984        3.96212        5.74004
H          4.64670        2.54265        6.69196
H          6.09693        2.52777        5.68609
H         -0.28863        4.02760       -6.69535
H         -0.81968        5.34104       -5.64927
H          0.88999        4.90902       -5.72128
H         -7.04269       -1.17770       -1.05270
H         -6.81063       -1.02103       -2.79369
H         -6.41511       -2.53743       -1.98122
