105
-153.06202911
Cl         0.48369        3.63215        1.54948
Pd        -0.14840        1.92045        0.23020
P         -0.73067        0.21870       -1.31921
N          0.13668       -1.20651       -1.91996
C          0.21465       -2.52636       -1.48569
C         -0.12481       -2.97395       -0.17936
C          0.17211       -4.30442        0.19147
C          0.02742       -4.72524        1.63627
C         -0.13908       -6.24068        1.81563
C          0.97091       -6.98930        1.07200
C          0.95068       -6.65647       -0.42938
C          0.67761       -5.20516       -0.74939
C          0.93339       -4.76149       -2.03954
C          0.72811       -3.45342       -2.39225
H          0.97135       -3.12249       -3.38716
H          1.32059       -5.45877       -2.76332
H          1.90376       -6.94412       -0.89140
H          1.94323       -6.70696        1.49511
H         -0.15375       -6.51321        2.88045
H          0.91795       -4.38716        2.17972
C         -0.70370       -2.07229        0.85289
C          0.13028       -1.08249        1.43680
C         -0.32483       -0.37628        2.55125
C         -1.58026       -0.60464        3.05167
C         -2.43480       -1.53540        2.46799
C         -3.79908       -1.72833        3.08846
C         -4.74503       -2.66064        2.31022
C         -3.98324       -3.82496        1.66925
C         -2.90313       -3.29324        0.71768
C         -1.99726       -2.27637        1.36636
H         -2.31177       -4.12040        0.30835
H         -4.67012       -4.50484        1.14553
H         -5.25455       -2.09040        1.52432
H         -4.26442       -0.74265        3.21641
H         -1.92519       -0.04678        3.90573
H          0.30887        0.37206        2.99073
N          1.29124       -0.73102        0.75266
P          1.82962        0.89482        0.96983
C          2.91661        1.38528       -0.36110
C          3.11779        2.72451       -0.59569
C          3.87621        3.12337       -1.68095
C          4.43341        2.18134       -2.53601
C          4.20501        0.83392       -2.28838
C          3.44663        0.43648       -1.20208
H          3.25384       -0.60763       -1.01556
H          4.61699        0.09804       -2.95762
C          5.21718        2.60805       -3.72794
H          4.02663        4.17085       -1.87867
H          2.64225        3.44695        0.04921
C          2.64549        0.99729        2.56290
C          3.39399       -0.08145        2.96946
C          4.03955       -0.04835        4.19324
C          3.93204        1.06357        5.01814
C          3.17641        2.14515        4.58556
C          2.53335        2.10809        3.36335
H          1.93492        2.93788        3.02880
H          3.09480        3.01646        5.21271
C          4.64659        1.11135        6.32389
H          4.63115       -0.88839        4.51474
H          3.46091       -0.94701        2.32877
H          1.13989       -0.85146       -0.24810
H          0.36010       -1.02938       -2.89148
C         -0.60234        1.35413       -2.70905
C         -1.70165        1.75616       -3.42876
C         -1.54692        2.63798       -4.48237
C         -0.28924        3.11592       -4.82627
C          0.80753        2.70183       -4.08321
C          0.64946        1.81957       -3.03039
H          1.49852        1.50312       -2.44738
H          1.78542        3.07975       -4.32753
C         -0.12559        4.09158       -5.93911
H         -2.40627        2.96675       -5.04143
H         -2.67802        1.39107       -3.15650
C         -2.46154       -0.21470       -1.15860
C         -3.26773        0.34853       -0.19835
C         -4.60895        0.01789       -0.14675
C         -5.15239       -0.87756       -1.05861
C         -4.32480       -1.42858       -2.02698
C         -2.98147       -1.09909       -2.07342
H         -2.33105       -1.53005       -2.81826
H         -4.73764       -2.12100       -2.74053
C         -6.59600       -1.23986       -1.01224
H         -5.24303        0.45933        0.60293
H         -2.85003        1.05163        0.50317
Cl        -1.87248        3.12933       -0.55703
H          0.18946       -7.26713       -0.92964
H         -1.11468       -6.54773        1.41816
H          0.88414       -8.07310        1.23359
H         -0.80904       -4.19713        2.10619
H         -3.51091       -4.42776        2.45497
H         -3.37966       -2.82772       -0.15061
H         -3.65911       -2.11690        4.10436
H         -5.54631       -3.03505        2.96274
H          4.57598        2.67992       -4.60755
H          5.67931        3.58316       -3.56790
H          6.01407        1.89671       -3.94930
H          4.11319        1.73566        7.04207
H          4.74066        0.11497        6.75798
H          5.64995        1.52143        6.20135
H         -0.21012        5.11500       -5.57120
H          0.84966        3.98470       -6.41616
H         -0.88716        3.94551       -6.70638
H         -7.08473       -0.81828       -0.13282
H         -7.11754       -0.86742       -1.89498
H         -6.72403       -2.32277       -0.97664
