64
-97.20827254
Cl        -1.49509       -1.40158       -2.61419
Cl         1.67319       -1.37338       -2.87799
P          1.96975       -0.63107        0.27843
C          2.23016       -2.30191        1.03153
C          3.73644       -0.14992       -0.02627
P         -1.29895       -0.15018        0.37659
C          1.23940        0.56030        1.45638
C         -0.18850        0.80764        1.47726
C         -0.44210        1.92554        2.37514
C          0.83349        2.37866        2.90064
C          1.87294        1.55200        2.31198
H         -1.41534        2.36767        2.59340
H          0.98584        3.20555        3.59787
Pd         0.21700       -1.00163       -1.21665
H          2.94630        1.64306        2.49199
C         -4.92488        2.38568       -0.71465
C         -4.20271        1.76448       -1.71397
C         -3.11368        0.97902       -1.38772
C         -2.74011        0.82951       -0.07154
C         -3.47241        1.42850        0.92842
C         -4.56616        2.21280        0.60757
H         -5.77600        2.99734       -0.96616
H         -4.49157        1.88379       -2.74536
H         -2.56741        0.45481       -2.15311
H         -3.19661        1.26617        1.95785
H         -5.13760        2.68592        1.38923
C         -2.74122       -3.97403        2.35492
C         -2.37416       -2.89453        3.13528
C         -1.93953       -1.72628        2.53499
C         -1.87367       -1.65096        1.16310
C         -2.24277       -2.72032        0.38146
C         -2.67785       -3.88923        0.97756
H         -3.07965       -4.88449        2.82210
H         -2.42525       -2.96133        4.20964
H         -1.64654       -0.87426        3.12771
H         -2.18408       -2.62933       -0.69154
H         -2.96588       -4.73019        0.36840
C          4.09181       -0.16623       -1.49630
H          3.86569        0.85885        0.38720
C          4.52125       -1.19031        0.79695
H          4.70982       -0.80261        1.80885
C          3.74785       -2.53236        0.89587
H          5.51310       -1.34567        0.34786
C          1.73951       -2.31204        2.46294
H          1.66342       -3.02056        0.42370
H          4.10795       -3.12600        1.74847
H          3.95638       -3.13943        0.00289
H          2.27438       -1.56814        3.05683
H          0.67581       -2.07265        2.51946
H          1.89155       -3.28639        2.93333
H          5.13841        0.10065       -1.65871
H          3.93635       -1.16176       -1.91504
H          3.47585        0.52925       -2.06877
Fe         0.79796        2.44492        0.84268
C          2.10044        3.16379       -0.52922
C          1.35019        4.26093        0.05980
C         -0.06091        4.02533       -0.19185
C         -0.17576        2.77688       -0.92284
C          1.15738        2.25631       -1.15543
H          3.18891        3.06999       -0.54674
H          1.77432        5.12165        0.58193
H         -0.88819        4.66824        0.11645
H         -1.10547        2.33059       -1.27625
H          1.40263        1.36162       -1.73115
