111
-148.55898386
P         -2.51977        2.30382        0.32055
P         -0.01221        0.29562        0.43157
C         -1.66617        1.98656        1.88678
C         -0.58885        1.12751        1.92660
C         -2.97544        4.08577        0.12890
C         -2.06806        4.77659       -0.86564
C         -2.10515        2.59553        3.04473
H         -2.95831        3.25345        3.00991
C         -1.45619        2.34901        4.24232
H         -1.79778        2.82540        5.14676
C         -0.37390        1.49129        4.27959
H          0.13179        1.29853        5.21142
C          0.05832        0.87602        3.11834
H          0.89975        0.20093        3.13206
Pd        -1.20890        1.29886       -1.28185
Cl        -2.66220        2.10792       -2.78576
Cl         0.28520        0.38223       -2.68221
C         -4.45538        4.01450       -0.29203
C         -4.19398        1.52163        0.24092
H         -2.33905        5.82758       -0.99077
H         -1.02331        4.72992       -0.54877
H         -2.13388        4.30053       -1.84529
H         -4.50920        4.01632       -1.38952
H         -4.99087        4.91999        0.03179
H         -4.24277        1.00719       -0.72802
C         -5.14595        2.73272        0.25604
C         -4.39606        0.54694        1.38168
H         -2.88114        4.54340        1.12191
H         -5.47735        2.90930        1.28853
H         -6.06108        2.50671       -0.31210
H         -3.63534       -0.23727        1.37359
H         -4.32441        1.05734        2.34381
H         -5.37824        0.07097        1.33221
C         -1.14996       -4.11693        0.48404
C         -0.08304       -3.65255        1.29528
C          0.24966       -2.30883        1.23617
C         -0.48309       -1.43209        0.47900
C         -1.59020       -1.85638       -0.20935
C         -1.96852       -3.18814       -0.20708
O         -1.37593       -5.51157        0.33733
C          0.71850       -4.58490        2.21794
H          1.09823       -1.92768        1.77779
H         -2.15415       -1.13342       -0.77081
C         -3.22076       -3.60996       -0.99221
C          4.45173        0.87651       -0.27281
C          3.80746       -0.29822       -0.74300
C          2.44783       -0.43393       -0.51730
C          1.75016        0.50126        0.20039
C          2.38964        1.58044        0.75276
C          3.75047        1.77253        0.57766
O          5.76167        1.19390       -0.71506
C          4.52547       -1.43347       -1.49164
H          1.90751       -1.27150       -0.92553
H          1.80845        2.28287        1.32586
C          4.41595        2.93420        1.33527
C          1.25467       -3.80950        3.44288
C         -0.16751       -5.72148        2.75996
C          1.91286       -5.16705        1.44772
C         -3.90798       -4.82080       -0.33539
C         -4.26133       -2.46753       -1.02422
C         -2.82017       -3.94487       -2.43705
C         -0.64501       -6.10839       -0.72667
H          0.44852       -3.27891        3.94897
H          1.71079       -4.48968        4.16186
H          2.01762       -3.08586        3.15965
H         -0.51976       -6.36644        1.95878
H          0.38140       -6.34371        3.46635
H         -1.04036       -5.31686        3.27123
H          1.58587       -5.73199        0.57833
H          2.56900       -4.37108        1.09853
H          2.49877       -5.83278        2.08095
H         -4.83057       -5.07744       -0.85543
H         -3.26705       -5.69862       -0.35147
H         -4.15309       -4.60525        0.70405
H         -4.49088       -2.12556       -0.01590
H         -3.91141       -1.61679       -1.60690
H         -5.19135       -2.80493       -1.48111
H         -2.36355       -3.08080       -2.91933
H         -2.10005       -4.75894       -2.46801
H         -3.68868       -4.24027       -3.02506
H         -0.01714       -6.90845       -0.33482
H         -1.33704       -6.54232       -1.44812
H         -0.02069       -5.36479       -1.22376
C          5.76684        1.96638       -1.90409
C          4.09510       -2.79252       -0.89690
C          4.13475       -1.38826       -2.97826
C          6.05579       -1.34973       -1.35772
C          3.93503        2.93020        2.80373
C          5.94939        2.81108        1.36549
C          4.01944        4.26737        0.68005
H          4.29027       -2.81961        0.17474
H          3.03524       -2.98616       -1.05346
H          4.64545       -3.61134       -1.35962
H          4.60639       -2.20070       -3.53034
H          3.05596       -1.48054       -3.10005
H          4.43963       -0.44952       -3.43654
H          6.53786       -2.21500       -1.81213
H          6.44658       -0.46114       -1.84762
H          6.34805       -1.30887       -0.30902
H          4.13238        1.96532        3.27003
H          4.45071        3.69540        3.38339
H          2.86760        3.12968        2.88179
H          6.37264        2.90591        0.36835
H          6.39383        3.58802        1.98709
H          6.24929        1.84281        1.76473
H          4.35610        4.31359       -0.35375
H          4.45899        5.10946        1.21403
H          2.93749        4.39607        0.68289
H          6.79726        2.15801       -2.20417
H          5.25310        1.42999       -2.70018
H          5.25856        2.91434       -1.73646
