58
-89.86496867
P          1.69335        0.28238        0.76855
C          2.91193        1.53239        0.35616
C          4.21978        1.17494        0.12171
C          5.14885        2.14601       -0.20567
C          4.75887        3.46779       -0.29667
C          3.44451        3.82085       -0.06166
C          2.51741        2.84749        0.26636
H          1.48504        3.10560        0.44413
H          4.50662        0.13800        0.18991
C          2.34578       -1.36888        0.47480
C          2.51966       -1.76971       -0.83031
C          2.98487       -3.04090       -1.10944
C          3.27660       -3.90550       -0.07359
C          3.10998       -3.49876        1.23555
C          2.64512       -2.22542        1.51047
H          2.51896       -1.90040        2.52992
H          2.28449       -1.07923       -1.62438
C          1.26184        0.54209        2.53760
C          0.10886       -0.30708        3.05143
C         -1.25979        0.21739        2.65415
P         -1.70394        0.02518        0.87955
C         -1.96368       -1.71479        0.49265
C         -0.87286       -2.55415        0.50987
C         -1.02339       -3.89351        0.20249
C         -2.27067       -4.38546       -0.12592
C         -3.36167       -3.53923       -0.15648
C         -3.20536       -2.19975        0.15024
H         -4.04564       -1.52801        0.10402
H          0.10326       -2.15140        0.71878
C         -3.18140        1.02498        0.63549
C         -3.14342        2.14703       -0.16091
C         -4.27730        2.92389       -0.31446
C         -5.44202        2.57852        0.34140
C         -5.47291        1.46314        1.15453
C         -4.33668        0.68829        1.30560
H         -4.34329       -0.17299        1.95497
H         -2.22828        2.40878       -0.66706
Pd        -0.06839        0.39268       -0.73488
Cl         1.45661        1.00698       -2.27093
Cl        -1.77474        0.40086       -2.19794
H         -2.05265       -0.28819        3.21093
H         -1.34307        1.28086        2.88676
H          0.22419       -1.34342        2.71250
H          0.16417       -0.36036        4.14999
H          2.18177        0.34784        3.09459
H          1.04185        1.60359        2.66560
H          6.17360        1.87015       -0.39286
H          3.13927        4.85152       -0.13767
H          3.11638       -3.35479       -2.13185
H          3.34183       -4.17301        2.04365
H         -0.16593       -4.54616        0.20913
H         -4.33336       -3.92015       -0.42494
H         -4.25069        3.79614       -0.94674
H         -6.37922        1.19748        1.67353
H          5.48110        4.22506       -0.55480
H          3.63793       -4.89829       -0.28701
H         -2.39129       -5.42876       -0.36815
H         -6.32678        3.18229        0.22142
