111
-148.55297632
P         -2.37820        2.36737       -0.13611
P         -0.01702        0.36302        0.52266
C         -1.76478        2.22750        1.56281
C         -0.76445        1.32548        1.85070
C         -2.49268        4.13876       -0.65522
C         -1.67914        4.37964       -1.90794
C         -2.30618        3.00028        2.57023
H         -3.07277        3.72035        2.33497
C         -1.85854        2.84865        3.87124
H         -2.28207        3.45030        4.65880
C         -0.87552        1.92235        4.16209
H         -0.53264        1.79779        5.17605
C         -0.32768        1.15703        3.14830
H          0.43620        0.42501        3.36005
Pd        -1.18345        0.85664       -1.42276
Cl        -2.55817        1.41885       -3.10709
Cl        -0.09969       -0.77338       -2.52315
C         -4.00921        4.36007       -0.83732
C         -4.14913        1.85330       -0.32820
H         -1.72433        5.42548       -2.22121
H         -0.62943        4.11563       -1.75745
H         -2.05568        3.77223       -2.73270
H         -4.17900        5.07843       -1.65244
H         -4.42977        4.83115        0.06320
H         -4.14334        0.93179       -0.92648
C         -4.76016        3.02800       -1.11844
C         -4.81319        1.61015        1.01095
H         -2.10050        4.73777        0.17801
H         -5.82756        3.12334       -0.87103
H         -4.72255        2.81074       -2.19607
H         -4.25085        0.89119        1.61061
H         -4.87584        2.53632        1.58404
H         -5.83097        1.23129        0.89124
C         -1.15985       -4.03432        0.74399
C          0.20610       -3.66852        0.85726
C          0.53301       -2.32473        0.79177
C         -0.44011       -1.36613        0.69221
C         -1.76763       -1.70616        0.68376
C         -2.16413       -3.03241        0.74011
O         -1.51794       -5.40201        0.60535
C          1.33135       -4.70486        1.00480
H          1.56065       -2.00732        0.79890
H         -2.49377       -0.91454        0.60988
C         -3.66491       -3.36238        0.74300
C          4.47705        1.03463        0.06112
C          3.77706        0.20077       -0.84666
C          2.40957        0.06331       -0.68518
C          1.75128        0.63824        0.36986
C          2.44307        1.36177        1.30691
C          3.81136        1.54941        1.20262
O          5.82952        1.38727       -0.19147
C          4.46323       -0.53084       -2.01082
H          1.82418       -0.48127       -1.40456
H          1.89476        1.79536        2.12308
C          4.54932        2.32380        2.30650
C          1.79131       -5.15982       -0.38865
C          2.54438       -4.09574        1.74492
C          0.86164       -5.91507        1.83205
C         -3.95098       -4.64198        1.54928
C         -4.47459       -2.22374        1.40320
C         -4.15079       -3.52258       -0.70598
C         -1.57713       -5.85595       -0.74120
H          0.98394       -5.64052       -0.93460
H          2.12731       -4.30883       -0.97984
H          2.61592       -5.86847       -0.31598
H          3.28761       -4.86183        1.96474
H          3.04063       -3.33280        1.14680
H          2.23743       -3.64713        2.68935
H          0.05254       -6.44520        1.33583
H          1.67481       -6.62401        1.98573
H          0.50116       -5.59507        2.80911
H         -3.57516       -4.54542        2.56732
H         -5.02097       -4.84206        1.60009
H         -3.47563       -5.51009        1.10000
H         -5.51613       -2.51539        1.53649
H         -4.06823       -1.97394        2.38298
H         -4.47221       -1.32584        0.78787
H         -5.21751       -3.74263       -0.73835
H         -3.97699       -2.60805       -1.27282
H         -3.62595       -4.32807       -1.21295
H         -0.89548       -6.69595       -0.87351
H         -2.58558       -6.20134       -0.96776
H         -1.30414       -5.05185       -1.42590
C          5.98279        2.55187       -0.99328
C          4.40428        0.35001       -3.26776
C          5.92403       -0.87788       -1.67105
C          3.74502       -1.86723       -2.30741
C          5.98354        1.79439        2.48889
C          4.57868        3.81733        1.94881
C          3.83190        2.15710        3.66562
H          3.37082        0.56756       -3.53663
H          4.91120        1.29892       -3.10803
H          4.87608       -0.14645       -4.11526
H          6.38619       -1.45444       -2.47198
H          6.52206        0.01767       -1.52400
H          5.97511       -1.46701       -0.75597
H          2.74280       -1.71076       -2.70304
H          4.29460       -2.44610       -3.04923
H          3.66711       -2.46987       -1.40335
H          6.48578        2.29919        3.31376
H          5.97416        0.72565        2.70026
H          6.58123        1.95233        1.59451
H          5.08038        4.39480        2.72490
H          5.10340        3.98799        1.01193
H          3.56696        4.20699        1.83851
H          2.86281        2.65389        3.67411
H          4.42188        2.59501        4.47048
H          3.68046        1.10315        3.89751
H          6.49082        2.29478       -1.92248
H          5.00924        2.98780       -1.22092
H          6.59327        3.28198       -0.46198
