59
-75.79866260
Cl         1.69412        0.13351        2.37553
P          1.52669       -0.01837       -0.84657
P         -1.60620       -0.23179       -0.71191
C          0.55617       -0.22743       -2.41257
H          0.33524        0.76995       -2.79970
H          1.18555       -0.72592       -3.15628
C         -0.72137       -0.97953       -2.14897
H         -0.52097       -2.02526       -1.90689
H         -1.39059       -0.97052       -3.01447
C          3.01725       -1.11599       -0.75610
H          3.20260       -1.46474       -1.77922
C          2.34482        1.64050       -0.68506
H          2.07811        2.00947        0.31296
C         -3.23640       -1.03798       -0.37560
H         -3.40836       -0.93737        0.70313
C         -2.19998        1.46979       -1.14300
H         -1.83373        1.68172       -2.15444
C          4.12951       -0.15340       -0.30234
H          4.20124       -0.19112        0.79358
H          5.10761       -0.49556       -0.67365
C          3.84552        1.30571       -0.74787
H          4.19727        1.44664       -1.77905
H          4.42258        2.01886       -0.13983
C         -4.20954       -0.13451       -1.15254
H         -4.26706       -0.48846       -2.19152
H         -5.22921       -0.23255       -0.74883
C         -3.73856        1.34623       -1.12834
H         -4.12171        1.82880       -0.21905
H         -4.17771        1.91007       -1.96481
C          2.82748       -2.30487        0.17939
H          2.56034       -1.93133        1.17637
H          3.79297       -2.81276        0.31189
C          1.89021        2.63498       -1.74842
H          2.17824        2.25281       -2.73653
H          0.79384        2.67880       -1.76447
C         -3.27153       -2.50853       -0.77188
H         -4.31158       -2.86276       -0.74927
H         -2.95792       -2.60336       -1.81938
C         -1.65489        2.49047       -0.15004
H         -2.05063        2.25698        0.84783
H         -0.56820        2.36414       -0.05721
C          1.78314       -3.29385       -0.30831
H          1.67871       -4.14740        0.36542
H          2.03515       -3.68165       -1.29710
H          0.80544       -2.82053       -0.38709
C          2.45835        4.03006       -1.53627
H          3.54948        4.02281       -1.56120
H          2.16157        4.43184       -0.56552
H          2.11759        4.73231       -2.30058
C         -2.40636       -3.37841        0.12694
H         -2.75104       -3.33995        1.16203
H         -1.37071       -3.03835        0.12817
H         -2.41056       -4.42551       -0.18398
C         -1.98171        3.92686       -0.53010
H         -1.57790        4.64267        0.18952
H         -1.57000        4.17817       -1.50946
H         -3.05977        4.08829       -0.58380
Cl        -1.52087       -0.69781        2.44905
Pd         0.04065       -0.23488        0.90974
