72
-98.09165592
Fe         0.04319        2.72563        0.16768
P          1.92230       -0.14099       -0.12879
P         -1.83038       -0.06218       -0.21761
C          1.50464        1.44827        0.68660
C          0.57010        1.60762        1.78672
C          0.53477        3.01281        2.15334
C          1.45423        3.72420        1.28354
C          2.05998        2.75724        0.38281
C         -1.42736        1.67580       -0.65782
C         -1.95645        2.87313       -0.01908
C         -1.33049        4.03088       -0.63433
C         -0.42022        3.55330       -1.65802
C         -0.49153        2.10292       -1.68411
C          3.49101       -0.78196        0.60819
C          4.55561       -0.12541       -0.28841
C          2.53171        0.18520       -1.84935
C          4.06344        0.00905       -1.75634
C         -2.67577       -0.97422       -1.59962
C         -4.11890       -1.17011       -1.10805
C         -3.23974       -0.05824        1.00229
C         -4.20662       -1.10961        0.43707
H          0.03918        0.79045        2.27763
H         -0.05604        3.45271        2.95991
H          1.67140        4.79428        1.31637
H          2.81541        2.96754       -0.37748
H         -2.69387        2.90187        0.78552
H          0.05516        1.45101       -2.36512
Cl         1.53719       -3.08952        0.47463
Cl        -1.65162       -2.83533        0.84947
Pd         0.01072       -1.44817        0.21289
H          3.49784       -1.86883        0.46873
C          3.61851       -0.43842        2.08776
H          2.28935        1.23948       -2.03451
C          1.84167       -0.70687       -2.88292
H          5.49979       -0.68965       -0.23804
H          4.78634        0.87040        0.11611
H          4.57351        0.84460       -2.25866
H          4.36284       -0.88155       -2.32139
H         -1.51949        5.07595       -0.37841
H          0.19195        4.17646       -2.31403
H          4.64039       -0.66591        2.42212
H          0.75865       -0.53661       -2.82816
H         -2.16826       -1.94355       -1.67885
C         -2.56623       -0.22008       -2.91896
H         -3.70496        0.93146        0.92212
C         -2.80388       -0.30609        2.45315
H         -4.52904       -2.11822       -1.48684
H         -4.75065       -0.38194       -1.53933
H         -5.23607       -0.90306        0.76727
H         -3.95280       -2.09061        0.86021
H         -3.03535        0.76592       -2.80211
H         -1.90331       -0.93318        2.45344
C          2.61021       -1.16981        2.96034
H          2.71401       -0.90983        4.01610
H          1.58689       -0.93651        2.66463
H          2.72602       -2.25164        2.87316
C          2.11491       -2.19636       -2.72849
H          1.87283       -2.54108       -1.72435
H          1.52320       -2.79299       -3.42676
H          3.16186       -2.44383       -2.90697
C         -3.18757       -0.96959       -4.08803
H         -2.71563       -1.94434       -4.22536
H         -4.25199       -1.14799       -3.92586
H         -3.08711       -0.42021       -5.02688
C         -2.56932        0.97994        3.23247
H         -1.87182        1.63800        2.71547
H         -3.49764        1.54194        3.35278
H         -2.16934        0.78956        4.23094
H          3.51005        0.64739        2.20926
H          2.13613       -0.38159       -3.89049
H         -1.50917       -0.01303       -3.12886
H         -3.56901       -0.90806        2.96288
