59
-75.80070030
Cl         1.39042        0.69911        2.39296
P          1.53520       -0.08796       -0.76203
P         -1.65044       -0.15851       -0.87406
C          0.63253        0.37561       -2.30770
H          0.43633        1.44912       -2.28021
H          1.29304        0.19102       -3.16044
C         -0.65013       -0.40284       -2.40797
H         -0.44501       -1.46985       -2.51648
H         -1.25233       -0.10319       -3.27116
C          2.28466       -1.76309       -1.03011
H          1.66911       -2.23940       -1.80410
C          3.12518        0.85222       -0.61478
H          3.47019        0.72774        0.41838
C         -2.83129       -1.54311       -0.50164
H         -2.77244       -1.69743        0.58301
C         -2.86842        1.23027       -1.08580
H         -2.86117        1.47892       -2.15396
C          3.69766       -1.45794       -1.58353
H          4.44013       -2.00673       -0.98953
H          3.80402       -1.86266       -2.60114
C          4.03437        0.06430       -1.57411
H          3.90654        0.47864       -2.58470
H          5.09331        0.23204       -1.32348
C         -4.19747       -0.94657       -0.87747
H         -4.41531       -1.19278       -1.92598
H         -4.99765       -1.42225       -0.28991
C         -4.21289        0.59218       -0.69185
H         -4.41855        0.82786        0.36145
H         -5.03621        1.04910       -1.26164
C          2.27973       -2.60859        0.24426
H          2.64829       -3.61573        0.00387
H          1.24353       -2.75122        0.57789
C          2.99235        2.33773       -0.93410
H          3.98961        2.75253       -1.13691
H          2.43783        2.45444       -1.87350
C         -2.51307       -2.84596       -1.22693
H         -3.36584       -3.53112       -1.12205
H         -2.43847       -2.64496       -2.30335
C         -2.53126        2.46732       -0.25876
H         -3.40093        3.13911       -0.25207
H         -2.39331        2.16609        0.78762
C          3.09360       -2.02883        1.39146
H          3.05135       -2.66114        2.28134
H          2.72445       -1.04544        1.67965
H          4.14570       -1.91205        1.12862
C          2.32738        3.12213        0.18691
H          1.35953        2.69582        0.44997
H          2.16923        4.16974       -0.07876
H          2.93281        3.10039        1.09508
C         -1.24891       -3.51499       -0.71612
H         -0.38964       -2.85409       -0.81908
H         -1.02230       -4.43706       -1.25626
H         -1.33426       -3.76516        0.34315
C         -1.30902        3.21497       -0.76076
H         -0.42605        2.57904       -0.73419
H         -1.44010        3.54161       -1.79412
H         -1.09263        4.10069       -0.15901
Cl        -1.83020        0.19806        2.30138
Pd        -0.12681        0.13375        0.84211
