72
-98.09286975
Fe        -0.00961        2.77979       -0.00593
P          1.87646       -0.07924        0.04191
P         -1.89236       -0.07313        0.00518
C          1.40752        1.56569        0.71276
C          0.40445        1.79990        1.73778
C          0.32788        3.23125        1.97045
C          1.31001        3.87965        1.11998
C          1.99082        2.84933        0.35376
C         -1.42850        1.56016       -0.69587
C         -2.02250        2.84649       -0.36837
C         -1.35561        3.86454       -1.16233
C         -0.36807        3.20838       -1.99960
C         -0.41813        1.78497       -1.71620
C          3.08944       -0.87012        1.20284
C          4.43631       -0.79286        0.45268
C          2.98418        0.14141       -1.43042
C          4.37382        0.17279       -0.76240
C         -3.16881       -0.80480       -1.11264
C         -4.43569       -0.06751       -0.64989
C         -2.98410        0.15905        1.48886
C         -4.40866        0.22526        0.88063
H         -0.20166        1.03535        2.22145
H         -0.33498        3.72966        2.68156
H          1.51591        4.95172        1.07857
H          2.79157        3.00831       -0.37139
H         -2.83070        3.01176        0.34705
H          0.19293        1.01385       -2.18381
Cl         1.57343       -3.04222       -0.29719
Cl        -1.60118       -3.04401        0.20943
Pd        -0.00886       -1.45413       -0.00051
H          2.77333       -1.91174        1.33571
C          3.07965       -0.16603        2.55535
H          2.73458        1.10422       -1.89263
C          2.86235       -0.98391       -2.45677
H          4.73049       -1.79500        0.10853
H          5.22872       -0.47860        1.14571
H          4.60340        1.19583       -0.42870
H          5.14959       -0.08071       -1.50046
H         -1.57704        4.93390       -1.14983
H          0.28879        3.69600       -2.72333
H          3.43579        0.86399        2.41992
H          3.70947       -0.92079       -3.15391
H         -3.24603       -1.87315       -0.88184
C         -2.80120       -0.60506       -2.57730
H         -2.69980        1.11348        1.94795
C         -2.83998       -0.97722        2.50074
H         -5.33670       -0.63667       -0.92668
H         -4.50542        0.87874       -1.20591
H         -4.87105        1.20082        1.09205
H         -5.04292       -0.50749        1.39863
H         -2.72051        0.47112       -2.78003
H         -2.98209       -1.92975        1.97389
C          3.90582       -0.88263        3.61400
H          4.95530       -0.95488        3.32462
H          3.86795       -0.37017        4.57798
H          3.54553       -1.90126        3.76987
C          1.56037       -0.98348       -3.24120
H          0.69909       -1.10823       -2.58552
H          1.42696       -0.04788       -3.78733
H          1.52525       -1.79471       -3.97199
C         -3.79358       -1.24961       -3.53292
H         -3.86937       -2.32389       -3.35466
H         -4.79375       -0.83099       -3.40795
H         -3.50720       -1.10874       -4.57763
C         -1.52080       -0.98789        3.25718
H         -0.67157       -1.09929        2.58323
H         -1.37814       -0.06200        3.81733
H         -1.46959       -1.81136        3.97317
H          2.04019       -0.06908        2.89854
H          2.99197       -1.94206       -1.93787
H         -1.79332       -1.00687       -2.75096
H         -3.67057       -0.91971        3.21830
