171
-217.84729117
P         -1.59918        0.47988       -0.30968
P          1.59509       -0.36979       -0.31876
C         -0.85621        1.45680       -1.62341
C          0.86100       -1.27623       -1.68286
C         -0.06483        0.85929       -2.59844
C          0.58536        1.68076       -3.53945
C          0.39473        3.05160       -3.48919
C         -0.41310        3.62254       -2.52894
C         -1.03129        2.81902       -1.59158
C          1.04111       -2.63682       -1.72868
C          0.45866       -3.37976       -2.73694
C         -0.31747       -2.75060       -3.68732
C         -0.51430       -1.37989       -3.65629
C          0.09969       -0.61937       -2.64256
Cl         1.58706        0.49545        2.88038
Cl        -1.57676       -0.25038        2.89308
C         -1.35280       -0.73525       -4.70412
C          1.47316        1.10698       -4.58785
H         -0.55736        4.69030       -2.50475
H         -1.65463        3.25820       -0.82999
H          1.64031       -3.11902       -0.97288
H          0.60986       -4.44588       -2.78026
H          0.89225        3.67427       -4.21359
H         -0.78236       -3.32700       -4.46933
C         -3.75059       -3.30157       -1.53889
C         -2.79786       -3.36811       -0.52933
C         -2.12655       -2.19995       -0.19582
C         -2.39952       -1.02621       -0.85267
C         -3.34529       -0.97442       -1.84669
C         -4.04622       -2.11939       -2.20764
H         -4.29741       -4.18708       -1.80268
H         -1.40221       -2.19864        0.60056
H         -3.54323       -0.02820       -2.32097
C         -4.53191        2.86636        2.19929
C         -5.00419        1.81829        1.41715
C         -4.08560        1.11942        0.64691
C         -2.75696        1.46172        0.65467
C         -2.30692        2.49877        1.43264
C         -3.18669        3.21810        2.23040
H         -5.22656        3.41587        2.80468
H         -4.40892        0.28767        0.04567
H         -1.25644        2.73611        1.43303
C          4.23157       -3.11574        2.15029
C          2.85248       -3.21835        2.28228
C          2.06367       -2.38644        1.49825
C          2.63922       -1.46408        0.65910
C          4.00451       -1.35765        0.56427
C          4.83202       -2.19087        1.30563
H          4.85848       -3.77429        2.72236
H          0.99051       -2.44122        1.55026
H          4.42057       -0.61297       -0.08974
C          3.96291        3.26652       -1.58717
C          2.96205        3.41381       -0.63536
C          2.25031        2.28080       -0.26389
C          2.51645        1.06928       -0.85099
C          3.49232        0.94401       -1.80914
C          4.24550        2.04802       -2.19230
H          4.55420        4.12398       -1.85030
H          1.48826        2.33164        0.49395
H          3.66327       -0.02411       -2.24825
Pd         0.00993        0.11640        1.33201
C         -2.75966       -4.41057        1.74794
C         -2.49506       -4.65537        0.24991
C         -1.02109       -5.04265        0.03581
C         -3.37927       -5.82806       -0.21513
H         -2.54997       -5.30549        2.33347
H         -2.13883       -3.60445        2.13600
H         -3.80077       -4.13440        1.91351
H         -0.75933       -5.92630        0.61750
H         -0.83278       -5.26321       -1.01410
H         -0.35309       -4.23507        0.33020
H         -3.15277       -6.73079        0.35216
H         -4.43600       -5.60381       -0.07077
H         -3.21316       -6.05092       -1.26895
C         -6.50461       -2.42462       -2.55774
C         -5.17037       -2.09601       -3.25300
C         -4.88365       -3.14321       -4.34549
C         -5.29872       -0.71318       -3.92165
H         -6.48037       -3.41538       -2.10528
H         -6.71558       -1.70272       -1.76886
H         -7.33130       -2.40096       -3.26752
H         -5.65296       -3.12114       -5.11720
H         -3.92301       -2.95283       -4.82228
H         -4.85722       -4.15118       -3.93363
H         -4.37205       -0.42789       -4.41790
H         -6.08768       -0.71927       -4.67360
H         -5.54896        0.05524       -3.19056
C         -7.01085        1.51082       -0.05429
C         -6.47872        1.39208        1.38621
C         -7.34743        2.27259        2.30435
C         -6.59109       -0.06985        1.85910
H         -6.45747        0.86512       -0.73511
H         -8.06179        1.22706       -0.10699
H         -6.91840        2.53478       -0.41571
H         -7.30869        3.31752        1.99712
H         -8.39009        1.95700        2.26889
H         -7.01741        2.20348        3.34071
H         -7.63030       -0.39793        1.87041
H         -6.03706       -0.74220        1.20486
H         -6.19021       -0.17970        2.86648
C         -3.72329        4.91284        4.05347
C         -2.64478        4.35946        3.10238
C         -2.15926        5.49885        2.18962
C         -1.47022        3.83894        3.95517
H         -3.31138        5.69456        4.69163
H         -4.55352        5.34819        3.49785
H         -4.11312        4.12744        4.70079
H         -1.75115        6.32279        2.77471
H         -1.38259        5.15181        1.51009
H         -2.98014        5.88543        1.58593
H         -1.09725        4.61629        4.62163
H         -1.78412        2.99208        4.56494
H         -0.63801        3.51080        3.33418
C          2.39135       -5.64690        2.66068
C          2.23790       -4.23648        3.25357
C          0.74149       -3.95229        3.49353
C          2.95562       -4.16169        4.61577
H          1.95990       -6.39835        3.32170
H          1.88897       -5.71594        1.69590
H          3.44174       -5.89396        2.50855
H          0.58938       -2.93244        3.84693
H          0.16403       -4.09035        2.58183
H          0.33227       -4.63014        4.24239
H          2.48794       -4.82991        5.33868
H          4.00291       -4.44887        4.53515
H          2.91286       -3.14903        5.01636
C          6.92268       -3.45617        0.74138
C          6.36264       -2.10546        1.22314
C          6.92770       -1.77392        2.61652
C          6.81779       -1.00925        0.23934
H          6.51384       -3.71560       -0.23504
H          8.00843       -3.41941        0.65399
H          6.67120       -4.25901        1.43343
H          6.52057       -0.83113        2.98143
H          6.67716       -2.54848        3.34035
H          8.01345       -1.68429        2.58633
H          7.90548       -0.95856        0.19182
H          6.45307       -1.21052       -0.76769
H          6.45547       -0.02937        0.54986
C          2.48605        5.83761       -1.09823
C          2.69931        4.78341        0.00467
C          3.90971        5.17340        0.87035
C          1.44116        4.75614        0.89458
H          2.25130        6.81055       -0.66684
H          3.37556        5.95577       -1.71545
H          1.66202        5.55043       -1.75028
H          3.75236        6.13942        1.34974
H          4.07871        4.43161        1.65075
H          4.81672        5.23965        0.27024
H          1.23410        5.74467        1.30414
H          0.56947        4.44314        0.32077
H          1.56608        4.07340        1.73466
C          5.25740        3.00958       -4.29019
C          5.40757        1.94054       -3.19045
C          5.45136        0.55444       -3.86329
C          6.73116        2.16243       -2.43659
H          4.30777        2.90099       -4.81204
H          5.29840        4.01644       -3.87712
H          6.05625        2.92350       -5.02661
H          5.62443       -0.23380       -3.13112
H          4.51893        0.34156       -4.38514
H          6.25874        0.50464       -4.59375
H          7.58343        2.08480       -3.11141
H          6.75850        3.14805       -1.97291
H          6.85510        1.41987       -1.64894
H         -1.74543        0.22424       -4.36459
H          0.98261        1.11545       -5.56212
H         -2.20269       -1.36589       -4.96579
H         -0.77546       -0.56231       -5.61320
H          1.75242        0.07807       -4.35737
H          2.39307        1.68531       -4.67270
