87
-129.17792134
P         -1.45668       -0.35215       -0.27608
P          1.72178        0.23471        0.44958
C         -0.95929        0.75674       -1.60406
C          1.59242       -0.98890       -0.88093
C          0.16209        0.43742       -2.35927
C          0.55701        1.30736       -3.39512
C         -0.20298        2.43742       -3.64953
C         -1.32269        2.72799       -2.89777
C         -1.69728        1.88394       -1.87098
C          2.20242       -2.18527       -0.58425
C          2.14844       -3.23891       -1.47615
C          1.46580       -3.09028       -2.66331
C          0.82759       -1.90243       -2.97622
C          0.89649       -0.82182       -2.07539
Cl         0.96323       -0.18413        3.57822
Cl        -1.96503       -0.93964        2.91321
H         -1.89925        3.61444       -3.10545
H         -2.57066        2.10225       -1.27978
H          2.71876       -2.29422        0.35814
H          2.63014       -4.17344       -1.23968
H          0.09809        3.09965       -4.44345
H          1.41028       -3.91116       -3.35809
C         -2.40676       -4.41467       -2.08175
C         -2.80601       -3.25776       -2.73619
C         -2.51168       -2.03093       -2.15185
C         -1.82639       -1.97150       -0.96059
C         -1.43631       -3.12297       -0.31777
C         -1.72600       -4.35063       -0.88195
H         -2.63687       -5.37034       -2.52113
C         -3.55916       -3.32870       -4.01774
H         -2.81325       -1.11640       -2.63602
H         -0.91141       -3.06020        0.62123
H         -1.42130       -5.25669       -0.38438
C         -5.28323        1.25428        1.61345
C         -5.29394        0.04507        0.94830
C         -4.13218       -0.43407        0.37412
C         -2.97138        0.29885        0.46109
C         -2.95962        1.50397        1.12340
C         -4.11527        1.99711        1.71706
H         -6.18637        1.62936        2.06393
H         -6.20448       -0.52751        0.88113
H         -4.12576       -1.38245       -0.13751
H         -2.04601        2.06856        1.18107
C         -4.09956        3.30106        2.43380
C          6.09042        0.16740        1.73995
C          5.10482        0.13374        2.70624
C          3.77567        0.15003        2.33339
C          3.43702        0.19681        1.00277
C          4.41771        0.23246        0.03742
C          5.76222        0.22418        0.39252
H          7.12816        0.14761        2.02645
H          5.37121        0.09137        3.74967
H          2.99550        0.11431        3.07354
H          4.13825        0.25761       -1.00322
C          6.82173        0.23175       -0.65264
C          0.73682        4.59244       -0.38958
C          1.63174        3.92681       -1.20336
C          1.93660        2.60239       -0.95255
C          1.33171        1.95238        0.09691
C          0.46662        2.62260        0.93136
C          0.15302        3.95614        0.69678
H          0.49182        5.62239       -0.58588
H          2.08780        4.43599       -2.03649
H          2.63409        2.06820       -1.57702
H          0.06698        2.11744        1.79449
C         -0.79213        4.68974        1.58071
Pd        -0.12622       -0.59788        1.65367
C          1.77651        1.04675       -4.20879
C          0.07304       -1.80573       -4.25717
H          2.39570        1.94236       -4.27797
H          2.38869        0.25773       -3.77042
H          1.51069        0.74444       -5.22248
H         -0.62700       -0.96980       -4.24819
H          0.75224       -1.66965       -5.09954
H         -0.50442       -2.71365       -4.43662
H         -4.62268       -3.48689       -3.83351
H         -3.45082       -2.40652       -4.59067
H         -3.19862       -4.14923       -4.63986
H         -4.98996        3.42447        3.05180
H         -3.23133        3.37337        3.09003
H         -4.06452        4.13195        1.72799
H          7.72354        0.73127       -0.29573
H          7.09061       -0.78612       -0.93852
H          6.48603        0.75539       -1.54900
H         -1.76126        4.80925        1.09484
H         -0.94584        4.15979        2.52160
H         -0.41118        5.68359        1.82003
