171
-217.84764278
P         -1.59613        0.47830       -0.23989
P          1.56895       -0.35482       -0.31801
C         -0.87582        1.46741       -1.56090
C          0.81840       -1.25724       -1.67691
C         -0.10652        0.88687       -2.56388
C          0.52398        1.72414       -3.50455
C          0.33445        3.09376       -3.42792
C         -0.45204        3.64841       -2.44108
C         -1.04842        2.82924       -1.50321
C          0.99215       -2.61812       -1.73337
C          0.40631       -3.35033       -2.74750
C         -0.36216       -2.70961       -3.69649
C         -0.55208       -1.33810       -3.65526
C          0.05991       -0.58997       -2.63106
Cl         1.71342        0.43909        2.85375
Cl        -1.55815       -0.15705        2.92729
C         -1.37558       -0.67757       -4.70512
C          1.40052        1.17219       -4.57393
H         -0.59502        4.71566       -2.39556
H         -1.65213        3.25666       -0.71943
H          1.59085       -3.10887       -0.98291
H          0.55093       -4.41704       -2.79808
H          0.81800        3.72841       -4.15140
H         -0.82553       -3.27741       -4.48563
C         -3.68479       -3.33933       -1.47828
C         -2.74897       -3.38626       -0.45231
C         -2.10049       -2.20647       -0.11361
C         -2.37869       -1.04006       -0.78160
C         -3.30887       -1.00836       -1.79172
C         -3.98814       -2.16518       -2.15685
H         -4.21000       -4.23536       -1.75033
H         -1.38769       -2.19077        0.69291
H         -3.50920       -0.06932       -2.27894
C         -4.58983        2.88243        2.17619
C         -5.05116        1.86096        1.35616
C         -4.11336        1.15046        0.61870
C         -2.77839        1.46119        0.69782
C         -2.34063        2.47695        1.51163
C         -3.24303        3.20878        2.27330
H         -5.29924        3.42986        2.76923
H         -4.41710        0.33505       -0.01260
H         -1.28437        2.67661        1.56737
C          4.25165       -3.13321        2.07082
C          2.87559       -3.23246        2.23218
C          2.07248       -2.39412        1.46948
C          2.63176       -1.46547        0.62602
C          3.99537       -1.36092        0.50570
C          4.83626       -2.20261        1.22182
H          4.88943       -3.79834        2.62268
H          1.00068       -2.44671        1.54413
H          4.40087       -0.61011       -0.14754
C          3.97939        3.22306       -1.67518
C          2.99654        3.40333       -0.71036
C          2.27045        2.28959       -0.30864
C          2.50566        1.06439       -0.88046
C          3.46182        0.90771       -1.85418
C          4.22912        1.99118       -2.26689
H          4.58224        4.06526       -1.96038
H          1.51879        2.36670        0.45744
H          3.60581       -0.06930       -2.28329
Pd         0.04702        0.13680        1.38687
C         -0.95887       -5.04291        0.11834
C         -2.43609       -4.66857        0.33098
C         -3.30917       -5.85072       -0.13167
C         -2.70547       -4.42344        1.82810
H         -0.68965       -5.92238        0.70288
H         -0.76774       -5.26490       -0.93079
H         -0.29903       -4.22784        0.40986
H         -3.07940       -6.74809        0.44275
H         -4.36829       -5.63308        0.00508
H         -3.13527       -6.07958       -1.18294
H         -2.48476       -5.31409        2.41610
H         -2.09636       -3.60815        2.21525
H         -3.75039       -4.16082        1.99167
C         -6.42613       -2.56205       -2.57110
C         -5.08901       -2.17004       -3.22735
C         -4.73605       -3.19027       -4.32582
C         -5.25776       -0.78323       -3.87812
H         -6.37512       -3.55837       -2.13345
H         -6.68551       -1.86190       -1.77755
H         -7.23509       -2.55917       -3.30142
H         -4.67901       -4.20149       -3.92500
H         -5.48766       -3.18841       -5.11506
H         -3.77295       -2.95718       -4.77739
H         -4.33590       -0.45727       -4.35754
H         -6.03578       -0.80640       -4.64106
H         -5.54463       -0.03532       -3.13923
C         -7.33416        2.77636        0.86103
C         -6.54917        1.52915        1.30711
C         -7.01591        1.09260        2.70763
C         -6.84520        0.38678        0.31482
H         -8.40100        2.56306        0.79611
H         -7.20172        3.60017        1.56133
H         -6.99681        3.11261       -0.11925
H         -6.87253        1.88799        3.43807
H         -8.07368        0.83015        2.70268
H         -6.45305        0.22283        3.04597
H         -7.91262        0.16901        0.28203
H         -6.53170        0.65397       -0.69415
H         -6.33149       -0.52934        0.60592
C         -3.14065        3.89407        4.67832
C         -2.79017        4.31247        3.23902
C         -3.50691        5.62911        2.88720
C         -1.27009        4.54999        3.15597
H         -2.81447        4.64754        5.39497
H         -4.21476        3.75897        4.80001
H         -2.65456        2.95218        4.93220
H         -3.29110        5.92136        1.85963
H         -4.58722        5.53344        2.98846
H         -3.18218        6.43675        3.54304
H         -0.96344        5.34322        3.83754
H         -0.71559        3.65151        3.42643
H         -0.97974        4.84839        2.14942
C          0.80651       -3.92698        3.53241
C          2.27728       -4.25677        3.20728
C          3.06378       -4.24745        4.53347
C          2.35219       -5.65360        2.56937
H          0.41419       -4.60488        4.29021
H          0.70956       -2.90933        3.91066
H          0.17622       -4.02736        2.65162
H          4.09152       -4.57952        4.39491
H          3.08626       -3.24441        4.95907
H          2.60229       -4.91253        5.26325
H          1.92583       -6.40888        3.22932
H          1.80398       -5.67743        1.62785
H          3.38511       -5.93120        2.36060
C          6.80291       -1.01720        0.12548
C          6.36513       -2.12019        1.10915
C          6.91209       -3.46811        0.60499
C          6.95902       -1.80135        2.49348
H          6.44954       -0.03914        0.45162
H          7.88953       -0.96883        0.05596
H          6.41689       -1.20975       -0.87524
H          6.67206       -4.27630        1.29484
H          6.48364       -3.71803       -0.36549
H          7.99602       -3.43325        0.49676
H          8.04414       -1.71385        2.44207
H          6.56154       -0.86071        2.87420
H          6.72133       -2.58125        3.21591
C          4.00093        5.17481        0.74364
C          2.76870        4.78944       -0.09302
C          1.52677        4.80237        0.81912
C          2.55454        5.82567       -1.21280
H          3.86899        6.15276        1.20620
H          4.17067        4.44572        1.53576
H          4.89829        5.21312        0.12684
H          1.34818        5.80166        1.21584
H          0.63714        4.49910        0.26776
H          1.65404        4.13071        1.66780
H          2.34391        6.81074       -0.79678
H          3.43522        5.91646       -1.84707
H          1.71475        5.54033       -1.84527
C          5.23631        2.91126       -4.38772
C          5.37308        1.84682       -3.28154
C          5.37049        0.45528       -3.94447
C          6.71287        2.04053       -2.54896
H          4.27841        2.82333       -4.89802
H          5.30839        3.91986       -3.98332
H          6.02379        2.79919       -5.13286
H          5.53544       -0.33207       -3.20955
H          4.42431        0.26277       -4.44930
H          6.16415        0.37962       -4.68763
H          7.55283        1.93653       -3.23557
H          6.77166        3.02849       -2.09322
H          6.83000        1.30104       -1.75764
H         -1.79402        0.26419       -4.34725
H          0.92099        1.24919       -5.55072
H         -2.20595       -1.31445       -5.00968
H         -0.77843       -0.46693       -5.59313
H          1.64159        0.12361       -4.39512
H          2.34093        1.72090       -4.62005
