58
-89.86487414
P          1.72685        0.27281        0.73339
C          3.05789        1.39461        0.28114
C          3.08371        2.67375        0.78948
C          4.09146        3.54392        0.41345
C          5.06267        3.13013       -0.47647
C          5.02586        1.85114       -0.99494
C          4.01720        0.98362       -0.61630
H          3.96400       -0.01014       -1.03134
H          2.31074        2.99399        1.46921
C          2.25077       -1.43680        0.55930
C          1.36057       -2.37516        0.09410
C          1.74002       -3.70048       -0.00583
C          3.01385       -4.07909        0.36808
C          3.90246       -3.13700        0.84827
C          3.51627       -1.81213        0.94951
H          4.19488       -1.06857        1.33643
H          0.36291       -2.07199       -0.16893
C          1.26905        0.52214        2.49214
C          0.19628       -0.44998        2.96503
C         -1.21772       -0.02177        2.60567
P         -1.66814       -0.17626        0.82689
C         -1.89972       -1.88560        0.32230
C         -2.07950       -2.14050       -1.01809
C         -2.22641       -3.44103       -1.46249
C         -2.19327       -4.48174       -0.55599
C         -2.01783       -4.22341        0.78930
C         -1.87120       -2.92050        1.23008
H         -1.72865       -2.71223        2.27744
H         -2.09554       -1.31294       -1.70918
C         -3.18833        0.75579        0.62095
C         -3.14948        2.12932        0.69317
C         -4.31358        2.85838        0.52665
C         -5.50693        2.20482        0.28982
C         -5.54005        0.82601        0.21843
C         -4.37459        0.09980        0.38451
H         -4.38285       -0.97658        0.32532
H         -2.20814        2.62570        0.87013
Pd        -0.09336        0.68114       -0.64764
Cl         1.30184        1.71974       -2.07353
Cl        -1.81167        0.95355       -2.08441
H         -1.96412       -0.59991        3.15552
H         -1.37629        1.02283        2.88060
H          0.39913       -1.44921        2.55737
H          0.26816       -0.56428        4.05810
H          2.19744        0.39681        3.05507
H          0.94808        1.55576        2.62938
H          4.11372        4.54564        0.81016
H          5.77621        1.53078       -1.69892
H          1.03861       -4.43432       -0.36715
H          4.89449       -3.43304        1.14748
H         -2.36352       -3.64008       -2.51259
H         -1.99199       -5.03659        1.49598
H         -4.28693        3.93446        0.57744
H         -6.47056        0.31617        0.03012
H          5.84585        3.80881       -0.77268
H          3.31294       -5.11170        0.29092
H         -2.30577       -5.49742       -0.89870
H         -6.41372        2.77220        0.15740
