171
-217.83698617
P         -1.53657        0.13792       -0.07261
P          1.78238       -0.52982       -0.10413
C         -0.86319        1.34738       -1.22708
C          0.98038       -1.26436       -1.54740
C         -0.05580        0.89601       -2.26406
C          0.50481        1.83226       -3.15399
C          0.18918        3.17270       -3.00471
C         -0.63384        3.60008       -1.98379
C         -1.15172        2.68336       -1.08989
C          1.14303       -2.62476       -1.66612
C          0.52156       -3.31552       -2.68839
C         -0.27871       -2.63440       -3.57994
C         -0.47269       -1.26819       -3.46677
C          0.17539       -0.56130       -2.43633
Cl         1.36600       -1.41771        3.03210
Cl        -1.71344       -2.20240        2.20006
C         -1.37700       -0.58514       -4.43250
C          1.40708        1.39830       -4.25590
H         -0.86973        4.64683       -1.88388
H         -1.78049        3.01361       -0.28087
H          1.75390       -3.14824       -0.94540
H          0.65522       -4.38088       -2.78160
H          0.59168        3.88582       -3.70375
H         -0.77452       -3.16654       -4.37428
C         -4.33846       -2.56373       -2.38843
C         -3.43135       -3.14432       -1.51129
C         -2.59406       -2.30183       -0.79296
C         -2.65481       -0.94244       -0.96545
C         -3.54038       -0.38675       -1.85635
C         -4.40861       -1.19037       -2.58627
H         -5.01839       -3.20095       -2.92285
H         -1.89320       -2.70071       -0.08283
H         -3.53293        0.67999       -1.99581
C         -4.00320        2.29896        3.09378
C         -2.95095        1.50158        3.52162
C         -2.19211        0.85774        2.55441
C         -2.48570        0.98711        1.21692
C         -3.54792        1.76325        0.82029
C         -4.32093        2.44710        1.75047
H         -4.59903        2.80976        3.82766
H         -1.37128        0.23626        2.85658
H         -3.77115        1.83705       -0.22882
C          2.47794        3.94429        0.05155
C          3.19909        3.17169       -0.84872
C          2.93723        1.80785       -0.88490
C          2.00347        1.25331       -0.04442
C          1.31425        2.03113        0.85734
C          1.53103        3.40276        0.91151
H          2.67305        4.99987        0.09599
H          3.47018        1.16238       -1.56103
H          0.60271        1.56415        1.51385
C          5.91798       -2.37150        0.17018
C          5.18318       -2.21934        1.34074
C          3.91555       -1.66487        1.24265
C          3.40841       -1.28031        0.02895
C          4.14723       -1.43570       -1.11799
C          5.42036       -1.98907       -1.07081
H          6.89952       -2.80105        0.22590
H          3.30505       -1.54566        2.11910
H          3.72112       -1.13242       -2.06015
Pd        -0.00695       -1.06576        1.28814
C         -3.10846       -5.32286       -2.71191
C         -3.38613       -4.66938       -1.34564
C         -4.73859       -5.15916       -0.79813
C         -2.27550       -5.10044       -0.36678
H         -3.89135       -5.08707       -3.43164
H         -2.16147       -4.97146       -3.12031
H         -3.05458       -6.40762       -2.62160
H         -4.73258       -6.23912       -0.65182
H         -4.95723       -4.68929        0.16061
H         -5.55222       -4.91905       -1.48163
H         -2.24241       -6.18561       -0.27224
H         -1.29701       -4.76896       -0.71366
H         -2.44664       -4.68878        0.62763
C         -6.84710       -0.72730       -2.85900
C         -5.46717       -0.59486       -3.52642
C         -5.47060       -1.34687       -4.87189
C         -5.19502        0.89573       -3.81245
H         -7.62994       -0.30937       -3.49166
H         -7.08976       -1.77234       -2.66806
H         -6.86535       -0.20065       -1.90489
H         -4.49012       -1.30300       -5.34431
H         -5.73721       -2.39510       -4.74576
H         -6.19252       -0.90653       -5.55956
H         -5.92072        1.29204       -4.52253
H         -5.26939        1.49324       -2.90455
H         -4.20197        1.03729       -4.23834
C         -2.47752        2.66304        5.70526
C         -2.69487        1.30010        5.02295
C         -1.45020        0.42511        5.27684
C         -3.91659        0.59952        5.64467
H         -1.61233        3.17297        5.28428
H         -3.34313        3.31277        5.58331
H         -2.30400        2.53871        6.77404
H         -0.55670        0.87577        4.84585
H         -1.27485        0.30290        6.34541
H         -1.57437       -0.56977        4.84963
H         -4.09348       -0.36186        5.16272
H         -3.76566        0.42157        6.70922
H         -4.81716        1.20182        5.52999
C         -5.70958        3.32815       -0.19226
C         -5.48426        3.35707        1.33261
C         -5.16516        4.80298        1.75362
C         -6.77821        2.88538        2.02160
H         -5.94044        2.31922       -0.53364
H         -6.54451        3.97028       -0.47235
H         -4.82875        3.68268       -0.72741
H         -5.96557        5.48149        1.45909
H         -5.04041        4.88112        2.83312
H         -4.24216        5.14482        1.28524
H         -6.99844        1.85101        1.75815
H         -6.69621        2.94459        3.10612
H         -7.62673        3.49878        1.71896
C          4.99691        2.78433       -2.60689
C          4.26591        3.82616       -1.73788
C          5.30864        4.52804       -0.84750
C          3.59727        4.85715       -2.66391
H          5.49565        2.04093       -1.98552
H          4.30445        2.27034       -3.27251
H          5.75660        3.26066       -3.22644
H          5.77020        3.81673       -0.16279
H          6.09779        4.97657       -1.45075
H          4.85513        5.31969       -0.25242
H          4.33491        5.34763       -3.29881
H          2.86554        4.37513       -3.31036
H          3.08237        5.62802       -2.09166
C          1.83670        4.84328        2.93387
C          0.81078        4.31471        1.91579
C         -0.29394        3.56225        2.67726
C          0.15674        5.49784        1.17694
H          2.31446        4.01796        3.46156
H          2.61745        5.42194        2.44126
H          1.35844        5.48561        3.67313
H         -0.81739        4.23318        3.35767
H         -1.03092        3.15348        1.98813
H          0.11986        2.74595        3.26820
H          0.89535        6.10061        0.65064
H         -0.56917        5.14197        0.44751
H         -0.36582        6.15078        1.87587
C          4.77234       -3.71159        3.31256
C          5.71016       -2.64348        2.71915
C          5.74628       -1.41487        3.64716
C          7.13094       -3.23294        2.63208
H          4.71321       -4.57940        2.65607
H          5.12954       -4.04739        4.28583
H          3.76312       -3.32326        3.44450
H          6.38522       -0.63648        3.23057
H          4.75124       -0.99303        3.78395
H          6.13349       -1.67994        4.63077
H          7.83414       -2.50406        2.22957
H          7.48888       -3.52578        3.61906
H          7.14986       -4.11962        1.99867
C          5.42235       -3.09320       -3.31990
C          6.20933       -2.16448       -2.37624
C          7.59832       -2.78269       -2.12660
C          6.40000       -0.78986       -3.04397
H          5.96390       -3.25236       -4.25219
H          5.25773       -4.06473       -2.85434
H          4.44829       -2.67280       -3.56788
H          8.14453       -2.89650       -3.06294
H          8.19684       -2.15062       -1.47079
H          7.51289       -3.77017       -1.67345
H          6.93269       -0.11017       -2.37920
H          6.97466       -0.87991       -3.96561
H          5.44229       -0.33445       -3.29312
H         -0.91196       -0.50909       -5.41637
H          0.84359        1.21154       -5.17086
H         -1.63374        0.42134       -4.10029
H         -2.30813       -1.14144       -4.54422
H          1.93830        0.48229       -3.99234
H          2.15514        2.16131       -4.47522
