171
-217.83981026
P         -1.44578        0.28578       -0.40211
P          1.60945       -0.78226        0.40900
C         -0.39490        1.04315       -1.65582
C          0.94026       -1.76590       -0.95254
C          0.47212        0.23171       -2.37660
C          1.32173        0.81767       -3.33453
C          1.22997        2.18023       -3.56877
C          0.34696        2.96713       -2.85871
C         -0.46289        2.39282       -1.89916
C          0.85817       -3.11425       -0.69531
C          0.30891       -3.97068       -1.62974
C         -0.17136       -3.46219       -2.81715
C         -0.11487       -2.10560       -3.08886
C          0.46040       -1.23494       -2.14391
Cl         0.64041       -0.96672        3.43346
Cl        -2.43892       -1.30661        2.36584
C         -0.68685       -1.60272       -4.36812
C          2.29405       -0.00578       -4.10461
H          0.29194        4.02667       -3.04830
H         -1.15627        2.99889       -1.34244
H          1.21920       -3.49385        0.24939
H          0.24885       -5.02737       -1.42653
H          1.85470        2.62349       -4.32528
H         -0.61190       -4.12130       -3.54620
C         -4.27714       -2.55010       -2.51509
C         -4.03666       -1.29977       -3.07106
C         -3.16416       -0.45089       -2.39979
C         -2.57952       -0.83943       -1.21902
C         -2.82772       -2.07990       -0.68882
C         -3.67363       -2.96958       -1.33648
H         -4.96543       -3.21316       -3.00554
H         -2.91697        0.51408       -2.80639
H         -2.36702       -2.34333        0.24543
C         -3.96239        3.56769        1.50895
C         -3.13573        2.82040        2.33633
C         -2.36107        1.82682        1.75410
C         -2.43120        1.57439        0.40394
C         -3.27958        2.30835       -0.38961
C         -4.05383        3.33061        0.14445
H         -4.55429        4.35405        1.94013
H         -1.70568        1.23907        2.36782
H         -3.32838        2.08393       -1.43989
C          5.41082       -2.87824        1.73077
C          4.58833       -2.32986        2.70862
C          3.41744       -1.70928        2.29825
C          3.08766       -1.63858        0.96973
C          3.91411       -2.18005        0.01590
C          5.09304       -2.81855        0.37835
H          6.31902       -3.36499        2.02958
H          2.74388       -1.28965        3.02255
H          3.63277       -2.10776       -1.02183
C          3.01060        3.48295       -0.22589
C          1.88836        3.27767        0.56821
C          1.43655        1.97379        0.72694
C          2.09276        0.92776        0.12019
C          3.21343        1.14951       -0.64207
C          3.69811        2.43805       -0.82943
H          3.37861        4.48149       -0.36769
H          0.57515        1.77502        1.33914
H          3.71727        0.30294       -1.07512
Pd        -0.46055       -0.71284        1.49910
C         -4.71646       -1.96140       -5.41230
C         -4.78324       -0.85755       -4.33855
C         -4.17458        0.42787       -4.93437
C         -6.25258       -0.58532       -3.97195
H         -5.21043       -1.63973       -6.32908
H         -3.68343       -2.20416       -5.65760
H         -5.20742       -2.87498       -5.08048
H         -4.27633        1.26882       -4.24928
H         -3.11709        0.29239       -5.15952
H         -4.67911        0.70102       -5.86106
H         -6.82053       -0.26196       -4.84410
H         -6.72778       -1.48116       -3.57308
H         -6.32216        0.19484       -3.21402
C         -3.56630       -5.42455       -1.83455
C         -3.95693       -4.37179       -0.78093
C         -5.45536       -4.49347       -0.45148
C         -3.14817       -4.64688        0.50276
H         -4.14491       -5.30437       -2.74960
H         -2.51118       -5.33688       -2.09201
H         -3.73944       -6.43352       -1.46073
H         -5.68518       -5.47421       -0.03544
H         -5.75032       -3.73928        0.27788
H         -6.06843       -4.35610       -1.34145
H         -3.41391       -3.94485        1.29278
H         -3.34437       -5.65171        0.87619
H         -2.07741       -4.56697        0.31602
C         -2.17081        2.12051        4.58737
C         -3.11579        3.08935        3.84795
C         -4.53595        2.90123        4.41312
C         -2.64188        4.53084        4.10390
H         -2.17789        2.31587        5.65945
H         -2.47655        1.08494        4.43908
H         -1.14381        2.22840        4.24139
H         -4.55141        3.06160        5.49099
H         -5.23861        3.60089        3.96223
H         -4.89598        1.89152        4.21655
H         -3.31019        5.25565        3.64047
H         -2.60459        4.74566        5.17171
H         -1.64509        4.68631        3.69406
C         -4.47888        5.65636       -0.67691
C         -4.97172        4.19884       -0.72695
C         -6.41386        4.11598       -0.19348
C         -4.97061        3.73071       -2.19591
H         -3.45218        5.72739       -1.03604
H         -5.10019        6.30050       -1.29887
H         -4.50463        6.04709        0.33977
H         -6.48317        4.49291        0.82611
H         -7.09247        4.70350       -0.81167
H         -6.76470        3.08413       -0.19383
H         -5.31410        2.69963       -2.27753
H         -5.63519        4.34859       -2.79960
H         -3.97337        3.79966       -2.63032
C          5.01933       -0.95308        4.75832
C          4.91965       -2.38769        4.20679
C          6.25661       -3.10672        4.47000
C          3.80127       -3.14835        4.94364
H          5.78795       -0.38996        4.22932
H          4.07648       -0.41920        4.64520
H          5.27342       -0.95904        5.81808
H          6.22609       -4.13562        4.11199
H          7.08210       -2.59258        3.97803
H          6.47601       -3.13595        5.53725
H          3.69865       -4.15892        4.54897
H          4.01583       -3.22166        6.00958
H          2.84066       -2.64703        4.83126
C          6.43845       -2.31353       -1.67637
C          5.98110       -3.42720       -0.71624
C          5.17188       -4.48153       -1.49510
C          7.23075       -4.10810       -0.12598
H          5.58806       -1.83306       -2.15891
H          6.99650       -1.54759       -1.13833
H          7.08295       -2.71318       -2.45910
H          5.78130       -4.94798       -2.26891
H          4.81683       -5.26520       -0.82614
H          4.30290       -4.03685       -1.97893
H          7.84673       -3.39317        0.41919
H          6.95425       -4.91552        0.55183
H          7.84638       -4.53759       -0.91627
C          1.91741        5.76927        1.10522
C          1.19109        4.42630        1.31452
C          1.18352        4.11109        2.82203
C         -0.25267        4.57483        0.80745
H          2.94787        5.71678        1.45626
H          1.92252        6.05336        0.05305
H          1.42067        6.56674        1.65782
H          0.73502        4.92559        3.39007
H          0.61925        3.20432        3.03322
H          2.19920        3.96466        3.18889
H         -0.81249        3.65319        0.94906
H         -0.77636        5.36849        1.33978
H         -0.26449        4.81993       -0.25393
C          5.98954        3.45254       -0.72082
C          4.97911        2.72349       -1.62683
C          4.64181        3.60618       -2.84077
C          5.63570        1.42309       -2.12946
H          6.92411        3.63843       -1.24986
H          5.60186        4.41338       -0.38475
H          6.21478        2.85463        0.16214
H          5.53843        3.83927       -3.41483
H          3.94299        3.09746       -3.50262
H          4.18742        4.54703       -2.53230
H          6.54784        1.63894       -2.68557
H          5.90262        0.77489       -1.29515
H          4.96797        0.87511       -2.79285
H         -0.78434       -0.51660       -4.36610
H          2.61735       -0.87451       -3.52880
H         -1.67993       -2.02120       -4.53337
H         -0.05937       -1.88561       -5.21448
H          3.18386        0.57176       -4.35882
H          1.85246       -0.36206       -5.03600
