58
-89.86706992
P          1.65415        0.06673        0.91152
C          1.84653        1.80462        0.49662
C          2.08007        2.12733       -0.82097
C          2.20463        3.45120       -1.19826
C          2.09620        4.44666       -0.24786
C          1.86767        4.12020        1.07452
C          1.74323        2.79420        1.44818
H          1.56507        2.53247        2.47793
H          2.15174        1.33411       -1.54802
C          3.20219       -0.81602        0.70463
C          3.19487       -2.19186        0.68866
C          4.38188       -2.88238        0.51916
C          5.56625       -2.18826        0.36802
C          5.56764       -0.80732        0.38531
C          4.37940       -0.11959        0.55399
H          4.36283        0.95833        0.56336
H          2.26047       -2.71953        0.79966
C          1.12790       -0.18634        2.65588
C         -0.29450        0.24623        2.97677
C         -1.36186       -0.67452        2.40041
P         -1.74582       -0.30476        0.64396
C         -3.07792       -1.37831        0.09044
C         -4.10298       -0.86744       -0.67280
C         -5.10888       -1.70241       -1.12451
C         -5.07752       -3.04722       -0.81336
C         -4.04133       -3.55872       -0.05752
C         -3.03620       -2.72081        0.39196
H         -2.21254       -3.11254        0.96720
H         -4.10514        0.18049       -0.92544
C         -2.22746        1.42358        0.54901
C         -3.42811        1.82042        1.09282
C         -3.79313        3.15463        1.05499
C         -2.94757        4.08398        0.48177
C         -1.73864        3.68299       -0.05059
C         -1.38003        2.34842       -0.01419
H         -0.43028        2.02946       -0.40647
H         -4.07330        1.08523        1.54753
Pd         0.13517       -0.69301       -0.66229
Cl         1.87717       -0.91502       -2.07388
Cl        -1.32689       -1.30364       -2.26183
H         -1.06414       -1.72091        2.48274
H         -2.31006       -0.56907        2.93359
H         -0.41375        0.29868        4.07043
H         -0.46383        1.27060        2.61894
H          1.25964       -1.24757        2.87550
H          1.85740        0.34824        3.26896
H          2.38267        3.70346       -2.23062
H          1.78348        4.89807        1.81555
H          4.38021       -3.95982        0.50078
H          6.49127       -0.26561        0.26402
H         -5.91122       -1.30419       -1.72361
H         -4.01128       -4.61003        0.17730
H         -4.73462        3.46750        1.47565
H         -1.07027        4.40736       -0.48603
H          2.19100        5.48027       -0.53829
H          6.49095       -2.72540        0.23332
H         -5.85905       -3.69991       -1.16682
H         -3.22932        5.12395        0.45415
