100
-131.98252121
C         -1.64445        3.77888       -1.47032
C         -2.37336        2.50622       -1.48557
C         -0.25148        3.50369       -1.54266
C         -0.04510        2.03187       -1.60311
C          1.12495        1.44098       -2.31176
C         -1.42220        1.43358       -1.55834
C         -1.82688        0.02620       -1.97172
C         -0.87257       -0.68620       -2.90713
Cl         0.94862       -0.45960        2.81296
Cl        -1.82071       -1.86796        2.29096
C          3.24317        0.41621       -3.83091
C          2.50496        1.47925       -4.31274
C          2.94067       -0.12527       -2.58985
C          1.47238        1.98831       -3.56603
C          1.89354        0.35614       -1.83995
H         -3.45730        2.39753       -1.55371
H          0.53899        4.25084       -1.64665
H          0.04051       -0.96669       -2.38289
H         -1.30865       -1.60368       -3.30957
H         -0.59620       -0.05235       -3.75320
H          4.06291        0.02057       -4.40800
H          2.74180        1.90938       -5.27244
H          3.55969       -0.91737       -2.20247
H          0.89171        2.81216       -3.94388
H         -2.10016        4.77259       -1.48160
P          1.74942       -0.30432       -0.16203
H         -2.80271        0.10434       -2.46784
P         -2.14904       -1.00343       -0.48341
H         -3.43422       -3.02703       -0.29375
C         -1.66142       -3.73298       -1.27276
C         -2.72906       -2.66434       -1.04228
C         -1.18891       -4.33510        0.05283
H         -3.20335        0.79526        0.63947
C         -4.89786       -0.07488       -0.35257
C         -3.56293       -0.20239        0.39859
H         -4.67204        0.18725       -1.40069
C         -5.70648       -1.37496       -0.34932
H          3.60160       -1.82135       -0.38713
H          2.52175        0.79222        1.85649
C          3.54314        3.26517        1.17221
C          2.71818        2.28912        0.31419
C          2.85991        0.84552        0.81655
C          4.34298        0.43886        0.77996
C          5.20613        1.40128        1.62246
C          5.02932        2.86154        1.16368
H          3.16662        3.24989        2.20249
H          3.41232        4.29953        0.82459
H          3.07794        2.33370       -0.72126
H          1.66398        2.58092        0.26207
H          4.47577       -0.59305        1.12656
H          4.68609        0.44907       -0.26134
H          4.91628        1.31573        2.67719
H          6.26437        1.10685        1.58512
H          5.43065        2.97455        0.14867
H          5.62172        3.54246        1.79118
C          2.69527       -4.30452       -1.08799
C          1.93067       -2.96503       -1.07537
C          2.56019       -1.98203       -0.08599
C          2.57027       -2.59146        1.32402
C          3.36094       -3.91378        1.34037
C          2.77404       -4.91568        0.32632
H          3.71035       -4.13812       -1.46926
H          2.22937       -5.00873       -1.79150
H          0.89931       -3.13758       -0.76096
H          1.86619       -2.52795       -2.08069
H          2.96071       -1.87638        2.05962
H          1.53786       -2.78737        1.63531
H          4.40966       -3.71273        1.08887
H          3.37819       -4.34398        2.35152
H          1.77087       -5.21426        0.65314
H          3.36338       -5.84350        0.31413
H         -0.81061       -3.24467       -1.77594
C         -2.18217       -4.83539       -2.20025
H         -3.71489       -0.71932        1.34598
C         -5.73508        1.06165        0.24557
H         -3.29433       -2.49020       -1.95987
H         -0.79146       -3.57776        0.72751
H         -0.41913       -5.09141       -0.10406
H         -2.01792       -4.82000        0.56896
H         -1.42044       -5.59459       -2.38500
H         -3.04395       -5.33471       -1.75629
H         -2.49561       -4.43379       -3.16528
H         -5.22429       -2.16800       -0.91751
H         -5.85324       -1.73519        0.66937
H         -6.69476       -1.22458       -0.78706
H         -5.96115        0.85997        1.29307
H         -5.21046        2.01686        0.20047
H         -6.68418        1.17944       -0.27965
Fe        -1.07716        2.65178        0.08570
C         -2.43864        3.07302        1.59350
C         -1.58612        4.21406        1.31632
C         -0.20494        3.82155        1.52516
C         -0.20476        2.42111        1.89889
C         -1.57683        1.96008        1.93984
H         -3.53063        3.07050        1.59001
H         -1.93072        5.22066        1.06733
H          0.66771        4.47534        1.45503
H          0.65484        1.83478        2.22301
H         -1.89216        0.97536        2.29329
Pd        -0.28366       -0.85879        0.96076
