105
-153.06666577
Cl         0.01817        1.97822        3.05330
Pd        -0.47426        1.28637        0.96352
P         -1.11478        0.49488       -1.15854
N         -0.72763       -1.01734       -1.97495
C          0.19095       -2.00660       -1.62638
C          0.32715       -2.48448       -0.29850
C          1.28904       -3.47741       -0.01847
C          1.40907       -3.99983        1.39369
C          2.23608       -5.28742        1.53320
C          3.50671       -5.21779        0.68153
C          3.15286       -5.02962       -0.80095
C          2.09080       -3.98686       -1.04385
C          1.90066       -3.53837       -2.34478
C          0.96747       -2.57784       -2.63365
H          0.84405       -2.22866       -3.64397
H          2.50870       -3.95060       -3.13223
H          4.04942       -4.76138       -1.37456
H          4.12416       -4.37570        1.01879
H          2.48394       -5.48076        2.58648
H          1.85349       -3.21292        2.01380
C         -0.67072       -2.12454        0.73742
C         -0.24581       -1.53983        1.96173
C         -1.17813       -1.40569        2.99487
C         -2.47749       -1.80948        2.83084
C         -2.91415       -2.37354        1.63833
C         -4.35023       -2.83290        1.55512
C         -4.81414       -3.20784        0.13844
C         -3.73399       -4.00843       -0.59327
C         -2.43626       -3.19472       -0.70263
C         -2.00997       -2.53370        0.58604
H         -1.62163       -3.83615       -1.06134
H         -4.08548       -4.32135       -1.58669
H         -5.03317       -2.29576       -0.43012
H         -4.99612       -2.05001        1.97195
H         -3.18035       -1.69289        3.63839
H         -0.86577       -0.95203        3.91909
N          1.05162       -1.03831        2.14457
P          1.60772        0.18752        1.00647
C          2.61365       -0.35672       -0.36155
C          2.39809        0.20487       -1.59512
C          3.21317       -0.14218       -2.65677
C          4.25870       -1.03879       -2.47862
C          4.46781       -1.58212       -1.21738
C          3.65028       -1.23425       -0.15694
H          3.81235       -1.64233        0.82807
H          5.27189       -2.28295       -1.07166
C          5.10962       -1.44732       -3.62981
H          3.03722        0.27805       -3.63210
H          1.58617        0.90069       -1.72116
C          2.54350        1.49425        1.80705
C          3.25365        1.23813        2.95518
C          3.97496        2.25421        3.55564
C          3.99700        3.52783        3.00280
C          3.27458        3.76429        1.84098
C          2.55473        2.74720        1.24073
H          1.99535        2.92673        0.33552
H          3.27543        4.75134        1.41110
C          4.74609        4.63046        3.66652
H          4.52405        2.06379        4.46192
H          3.24625        0.24598        3.37638
H          1.20805       -0.61083        3.04818
H         -0.99712       -0.92478       -2.94626
C         -0.62126        1.86961       -2.21094
C         -0.87214        3.16008       -1.81039
C         -0.48014        4.22157       -2.60310
C          0.16112        3.99849       -3.81359
C          0.40838        2.68982       -4.20469
C          0.01233        1.63104       -3.40840
H          0.21373        0.61770       -3.71233
H          0.91688        2.50512       -5.13558
C          0.61195        5.14099       -4.65563
H         -0.66925        5.23239       -2.28431
H         -1.37887        3.33041       -0.87527
C         -2.91034        0.53012       -1.09725
C         -3.58998        0.80081       -2.26126
C         -4.97339        0.82765       -2.26166
C         -5.68432        0.59418       -1.09250
C         -4.98023        0.31373        0.06977
C         -3.59851        0.27309        0.06303
H         -3.04983        0.05609        0.96515
H         -5.52174        0.12979        0.98173
C         -7.17321        0.60129       -1.09127
H         -5.50928        1.03411       -3.17228
H         -3.03488        0.99193       -3.16641
Cl        -2.29573        2.61628        1.01596
H          2.80930       -5.98180       -1.22256
H          1.63137       -6.14467        1.21165
H          4.12515       -6.11479        0.82745
H          0.40099       -4.15715        1.79758
H         -3.53554       -4.93744       -0.04420
H         -2.55685       -2.41666       -1.46512
H         -4.47453       -3.69542        2.22083
H         -5.75975       -3.76732        0.17091
H          5.20420       -0.63865       -4.35588
H          6.11441       -1.71647       -3.30118
H          4.68014       -2.31016       -4.14078
H          4.10607        5.16263        4.37154
H          5.60694        4.24726        4.21618
H          5.11463        5.35166        2.93570
H         -0.04760        6.00178       -4.53691
H          1.62139        5.44984       -4.38066
H          0.61813        4.87272       -5.71302
H         -7.56534       -0.40334       -1.25561
H         -7.56313        0.96353       -0.13902
H         -7.56529        1.24884       -1.87672
