171
-217.83462198
P         -1.66284        0.71659        0.23243
P          1.47874       -0.25902       -0.30457
C         -0.91299        1.78043       -1.02146
C          0.56407       -0.98170       -1.68372
C         -0.27752        1.30834       -2.16403
C          0.37010        2.22902       -3.00903
C          0.33468        3.57751       -2.69714
C         -0.30372        4.02868       -1.56201
C         -0.91844        3.12205       -0.72004
C          0.65037       -2.32397       -1.96437
C         -0.05128       -2.86024       -3.02598
C         -0.85812       -2.04778       -3.79416
C         -0.98018       -0.69649       -3.51656
C         -0.23265       -0.14650       -2.45727
Cl         2.16884        1.32666        2.52394
Cl        -0.79016        0.61136        3.50835
C         -1.88219        0.15227       -4.34293
C          1.11063        1.78710       -4.22284
H         -0.31435        5.08019       -1.32589
H         -1.39873        3.45728        0.18739
H          1.25505       -2.96225       -1.34431
H          0.02572       -3.91150       -3.25038
H          0.82607        4.27636       -3.35294
H         -1.40374       -2.46278       -4.62440
C         -2.90815       -3.51795       -0.79300
C         -3.59341       -2.44966       -1.35614
C         -3.16181       -1.16748       -1.04202
C         -2.10290       -0.97510       -0.18939
C         -1.45111       -2.04502        0.37913
C         -1.83581       -3.34514        0.07317
H         -3.23120       -4.51647       -1.02320
H         -3.65845       -0.30555       -1.45115
H         -0.63623       -1.85988        1.05539
C         -5.50318        2.70776        1.57050
C         -4.63775        2.22975        2.54662
C         -3.45572        1.63467        2.12782
C         -3.15982        1.53343        0.79284
C         -4.02226        2.01899       -0.15942
C         -5.22001        2.61649        0.21343
H         -6.42676        3.16395        1.87642
H         -2.74523        1.25155        2.83702
H         -3.74737        1.93240       -1.19701
C          3.86135       -3.54075        1.78778
C          3.95608       -3.38856        0.41079
C          3.23010       -2.36360       -0.18366
C          2.41011       -1.55149        0.56242
C          2.34131       -1.71937        1.92580
C          3.07414       -2.70539        2.56929
H          4.42161       -4.32788        2.25619
H          3.29844       -2.19638       -1.24376
H          1.73104       -1.06208        2.51585
C          4.43737        2.70339       -2.03234
C          3.66381        3.09611       -0.94766
C          2.77480        2.17155       -0.41685
C          2.66253        0.91720       -0.96070
C          3.41999        0.55288       -2.04689
C          4.32901        1.44312       -2.60690
H          5.15401        3.39662       -2.43213
H          2.16761        2.42183        0.43363
H          3.28070       -0.42682       -2.46887
Pd         0.26838        0.66165        1.52385
C         -5.46108       -1.38554       -2.71906
C         -4.80709       -2.70456       -2.26128
C         -5.85769       -3.51925       -1.48355
C         -4.36040       -3.48961       -3.50682
H         -4.76289       -0.77871       -3.29444
H         -6.32587       -1.58161       -3.35274
H         -5.80343       -0.80162       -1.86480
H         -5.46608       -4.49100       -1.18543
H         -6.16318       -2.98996       -0.58112
H         -6.74602       -3.69107       -2.09116
H         -3.62839       -2.92006       -4.07729
H         -3.90564       -4.44100       -3.23323
H         -5.20692       -3.69851       -4.16071
C         -0.69294       -5.53809       -0.41133
C         -1.15879       -4.57484        0.69677
C         -2.16823       -5.28892        1.61332
C          0.06950       -4.18032        1.53439
H         -0.20384       -6.41344        0.01582
H         -1.52876       -5.88743       -1.01580
H          0.01953       -5.04879       -1.07363
H         -3.03968       -5.62552        1.05270
H         -1.71712       -6.16054        2.08724
H         -2.51469       -4.61812        2.39935
H          0.54679       -5.06064        1.96458
H          0.81070       -3.67110        0.92094
H         -0.21414       -3.52145        2.35387
C         -3.90723        1.78165        4.94324
C         -5.00453        2.36555        4.03129
C         -6.31731        1.60791        4.30160
C         -5.18247        3.85539        4.37687
H         -4.17928        1.88734        5.99325
H         -3.75700        0.72034        4.74689
H         -2.95829        2.29654        4.79498
H         -7.13921        2.01781        3.71579
H         -6.21371        0.55463        4.04147
H         -6.59427        1.67034        5.35384
H         -4.26754        4.40990        4.16902
H         -5.98565        4.30451        3.79388
H         -5.42372        3.98508        5.43175
C         -5.70227        2.96972       -2.26053
C         -6.22216        3.14917       -0.82012
C         -6.46123        4.64991       -0.57253
C         -7.54857        2.37984       -0.68153
H         -5.54029        1.91712       -2.49175
H         -6.42081        3.35792       -2.98226
H         -4.76421        3.50458       -2.40848
H         -7.15301        5.06110       -1.30751
H         -6.88258        4.82684        0.41630
H         -5.52566        5.20463       -0.64196
H         -7.39177        1.31224       -0.83496
H         -7.98267        2.51497        0.30846
H         -8.27749        2.72310       -1.41547
C          4.23038       -5.77516       -0.28707
C          4.81831       -4.35769       -0.41004
C          6.26248       -4.34189        0.12449
C          4.85026       -3.96781       -1.90119
H          3.20213       -5.79739       -0.64827
H          4.80958       -6.49061       -0.87053
H          4.22730       -6.11238        0.74893
H          6.90219       -5.00092       -0.46229
H          6.67907       -3.33596        0.07564
H          6.30762       -4.67328        1.16107
H          5.47620       -4.65694       -2.46793
H          3.85202       -3.99673       -2.33779
H          5.25841       -2.96609       -2.03377
C          1.58797       -2.99868        4.58205
C          3.03599       -2.78680        4.10317
C          3.57847       -1.46692        4.68376
C          3.89812       -3.94814        4.63323
H          1.18905       -3.93742        4.19997
H          1.54076       -3.03526        5.67019
H          0.93598       -2.19147        4.25043
H          3.58798       -1.49333        5.77310
H          4.59650       -1.28512        4.34027
H          2.96705       -0.61932        4.37615
H          3.85615       -3.99523        5.72135
H          3.54624       -4.90482        4.24742
H          4.94286       -3.82298        4.34939
C          2.83509        4.74515        0.80369
C          3.81824        4.50536       -0.35967
C          3.53723        5.54979       -1.45546
C          5.25324        4.67788        0.16948
H          2.94434        5.75389        1.20135
H          1.80265        4.62987        0.47461
H          3.01638        4.04780        1.62128
H          3.62637        6.56199       -1.06140
H          4.23592        5.45276       -2.28549
H          2.52912        5.43010       -1.85071
H          5.39033        5.66450        0.61169
H          5.47289        3.93173        0.93288
H          5.98549        4.56501       -0.62918
C          6.67220        0.85617       -3.24146
C          5.24147        1.04258       -3.77558
C          5.23353        2.13925       -4.85857
C          4.77879       -0.27599       -4.42736
H          7.35353        0.56396       -4.04033
H          7.04727        1.77867       -2.79901
H          6.69865        0.08276       -2.47388
H          5.62332        3.08230       -4.47843
H          5.85127        1.84871       -5.70824
H          4.22318        2.31548       -5.22544
H          3.74766       -0.20092       -4.77214
H          5.40035       -0.52087       -5.28853
H          4.84925       -1.10867       -3.72849
H         -1.36437        0.52646       -5.22690
H          0.56899        2.05625       -5.13070
H         -2.24658        1.00984       -3.77504
H         -2.75241       -0.41245       -4.68046
H          1.26625        0.70766       -4.22800
H          2.09225        2.26010       -4.26553
