111
-148.54910137
P         -2.45608        2.25384       -0.29231
P         -0.12464        0.21856        0.46362
C         -1.88625        2.11889        1.42319
C         -0.86008        1.25632        1.73966
C         -2.70084        4.03760       -0.72627
C         -1.89278        4.42724       -1.94450
C         -2.45036        2.90682        2.40625
H         -3.24812        3.58558        2.15209
C         -1.98358        2.82676        3.70695
H         -2.42516        3.44045        4.47508
C         -0.94686        1.96867        4.01924
H         -0.57748        1.91171        5.02994
C         -0.37999        1.18429        3.03074
H          0.44165        0.52164        3.25470
Pd        -1.04930        0.90934       -1.54516
Cl        -2.23696        1.57925       -3.32914
Cl         0.41531       -0.34945       -2.69115
C         -4.22804        4.14684       -0.91891
C         -4.16504        1.60528       -0.57752
H         -2.00446        5.48877       -2.17772
H         -0.82958        4.22210       -1.79910
H         -2.21991        3.86380       -2.81921
H         -4.44663        4.89878       -1.69105
H         -4.69577        4.52544        0.00178
H         -4.06311        0.73953       -1.24643
C         -4.86492        2.77882       -1.29310
C         -4.81968        1.19240        0.72314
H         -2.37005        4.61746        0.14621
H         -5.93772        2.77049       -1.05098
H         -4.80505        2.63797       -2.38246
H         -5.82001        0.78561        0.55679
H         -4.22784        0.43439        1.24218
H         -4.92018        2.04793        1.39303
C         -1.10283       -4.20367        1.04433
C         -0.56663       -3.74429       -0.18695
C         -0.30445       -2.39219       -0.31932
C         -0.48189       -1.52115        0.72303
C         -0.88715       -1.98186        1.94889
C         -1.16257       -3.32329        2.15730
O         -1.65063       -5.50887        1.13842
C         -0.25826       -4.65495       -1.38752
H          0.02756       -1.99198       -1.26111
H         -1.00187       -1.27576        2.75184
C         -1.49932       -3.77380        3.58926
C          4.29590        1.19190        0.00077
C          3.31788        2.21145       -0.12493
C          1.98814        1.87057        0.06089
C          1.61777        0.57038        0.28557
C          2.54758       -0.43541        0.30070
C          3.89417       -0.16289        0.12579
O          5.67517        1.53019        0.03012
C          3.67724        3.67020       -0.44790
H          1.21520        2.62012        0.03110
H          2.20336       -1.44369        0.44905
C          4.89565       -1.32786        0.08590
C         -0.25239       -6.14587       -1.00803
C         -1.29823       -4.40840       -2.49316
C          1.14764       -4.32498       -1.93543
C         -1.41119       -5.30052        3.75911
C         -0.48409       -3.15243        4.57434
C         -2.91368       -3.29606        3.95741
C         -3.02865       -5.55150        0.80631
H         -1.24233       -6.48095       -0.70809
H          0.06373       -6.76381       -1.84815
H          0.42780       -6.32790       -0.17671
H         -1.28681       -3.36687       -2.81303
H         -1.09421       -5.02897       -3.36524
H         -2.30370       -4.63781       -2.14547
H          1.41371       -4.99615       -2.75154
H          1.20525       -3.30841       -2.32061
H          1.89810       -4.43430       -1.15355
H         -2.17045       -5.80756        3.16850
H         -0.43728       -5.66737        3.43695
H         -1.55656       -5.58925        4.79982
H         -0.56325       -2.06713        4.60746
H         -0.65022       -3.52008        5.58664
H          0.53557       -3.40784        4.28717
H         -3.16637       -3.57900        4.97896
H         -2.99096       -2.21188        3.88072
H         -3.66060       -3.72972        3.29529
H         -3.39440       -6.57222        0.91970
H         -3.59259       -4.89182        1.46361
H         -3.17548       -5.22895       -0.22319
C          6.18029        1.79825        1.33200
C          3.92147        4.43693        0.86043
C          4.92278        3.74599       -1.34946
C          2.52409        4.35806       -1.21458
C          6.08055       -1.00704       -0.84320
C          5.39938       -1.61627        1.50800
C          4.22354       -2.60488       -0.46714
H          4.16569        5.48017        0.66180
H          3.03412        4.41211        1.49260
H          4.74213        4.00163        1.42541
H          4.77178        3.16803       -2.26059
H          5.14008        4.77562       -1.63240
H          5.80163        3.35078       -0.84609
H          2.82568        5.34556       -1.56303
H          2.23268        3.77057       -2.08496
H          1.64706        4.49649       -0.58401
H          5.72664       -0.75722       -1.84287
H          6.65762       -0.16314       -0.47334
H          6.75645       -1.85789       -0.92485
H          4.56945       -1.87412        2.16555
H          6.10393       -2.44757        1.51152
H          5.90036       -0.74956        1.93225
H          3.47610       -2.99578        0.22162
H          4.95890       -3.39403       -0.62225
H          3.74087       -2.40416       -1.42328
H          5.39088        1.68955        2.07677
H          6.99197        1.10710        1.55839
H          6.57783        2.81236        1.36809
