111
-148.55585796
P         -2.60593        2.02703        0.34131
P          0.09938        0.39974        0.53909
C         -1.79180        1.82926        1.94890
C         -0.59237        1.15461        2.02250
C         -3.38754        3.69468        0.16260
C         -2.59572        4.57462       -0.77990
C         -2.36650        2.33778        3.09607
H         -3.31386        2.84803        3.03652
C         -1.73009        2.17552        4.31475
H         -2.17763        2.57259        5.21123
C         -0.52465        1.50343        4.38432
H         -0.03096        1.37516        5.33353
C          0.04435        0.98677        3.23407
H          0.97684        0.44538        3.27147
Pd        -1.06659        1.34263       -1.22950
Cl        -2.44647        1.98073       -2.87263
Cl         0.67554        0.74929       -2.52478
C         -4.81182        3.35690       -0.31690
C         -4.08822        0.94106        0.12203
H         -1.57199        4.71610       -0.42509
H         -2.53852        4.12594       -1.77270
H         -3.05675        5.55903       -0.88944
H         -4.83187        3.39546       -1.41479
H         -5.52293        4.12698        0.01884
H         -3.99524        0.50015       -0.87964
C         -5.25654        1.94367        0.15746
C         -4.14876       -0.13925        1.18003
H         -3.41686        4.13456        1.16757
H         -5.63838        2.00549        1.18586
H         -6.09769        1.57266       -0.44778
H         -5.04155       -0.75886        1.06833
H         -3.27602       -0.79307        1.12642
H         -4.17021        0.29785        2.17998
C         -1.43179       -3.86647        0.09667
C         -0.79479       -3.21921       -0.99522
C         -0.35732       -1.91924       -0.81604
C         -0.45315       -1.29789        0.40042
C         -0.94699       -1.96361        1.49113
C         -1.40996       -3.26455        1.38354
O         -2.16081       -5.06439       -0.11715
C         -0.55343       -3.87044       -2.36671
H          0.05180       -1.35911       -1.63980
H         -0.98389       -1.44730        2.43480
C         -1.86565       -3.97360        2.66998
C          4.61028        0.77908        0.07172
C          4.00027       -0.49987        0.01632
C          2.62613       -0.57544        0.16521
C          1.87832        0.54168        0.42987
C          2.47420        1.76539        0.58627
C          3.84608        1.91156        0.45491
O          5.97337        0.93243       -0.29651
C          4.79009       -1.79066       -0.25013
H          2.11463       -1.51519        0.05383
H          1.84541        2.61313        0.79858
C          4.47643        3.29349        0.68800
C         -0.75899       -5.39452       -2.33633
C         -1.50103       -3.24236       -3.40242
C          0.90800       -3.61925       -2.80095
C         -2.01117       -5.49362        2.48151
C         -0.81011       -3.75556        3.77649
C         -3.20801       -3.38243        3.13206
C         -3.51366       -4.82571       -0.46877
H         -1.79610       -5.64855       -2.13067
H         -0.49218       -5.84596       -3.29160
H         -0.14371       -5.84969       -1.56100
H         -1.33616       -3.67002       -4.39093
H         -2.54259       -3.40859       -3.13415
H         -1.34407       -2.16637       -3.47242
H          1.12671       -4.12589       -3.74051
H          1.11021       -2.55987       -2.94942
H          1.60184       -3.99281       -2.04855
H         -2.23901       -5.98677        3.42621
H         -2.81302       -5.72971        1.78601
H         -1.09026       -5.92188        2.08732
H         -1.07224       -4.30921        4.67774
H          0.17005       -4.09734        3.44503
H         -0.72493       -2.70633        4.05426
H         -3.54895       -3.86132        4.04956
H         -3.11726       -2.31418        3.32632
H         -3.97908       -3.51866        2.37609
H         -4.01565       -4.27711        0.32661
H         -3.56395       -4.23875       -1.38448
H         -4.01869       -5.77941       -0.62344
C          6.17082        1.19463       -1.68033
C          6.21742       -1.69852        0.31887
C          4.10966       -2.99721        0.43681
C          4.83666       -2.05112       -1.76352
C          3.66360        4.09414        1.73081
C          5.90823        3.16589        1.23944
C          4.48541        4.07677       -0.63349
H          6.19164       -1.47319        1.38447
H          6.75465       -2.63686        0.18326
H          6.79167       -0.91740       -0.17268
H          3.94373       -2.79751        1.49511
H          3.15112       -3.23628       -0.02108
H          4.73176       -3.88848        0.35793
H          5.37501       -2.97217       -1.98544
H          3.82947       -2.14195       -2.16944
H          5.33112       -1.23741       -2.28857
H          4.17626        5.01930        1.99331
H          2.68110        4.37048        1.35122
H          3.52868        3.51548        2.64429
H          6.32985        4.14498        1.46550
H          5.91576        2.57381        2.15396
H          6.56787        2.68184        0.52367
H          3.47263        4.19462       -1.01812
H          5.06888        3.56204       -1.39295
H          4.91275        5.06973       -0.49629
H          5.21192        1.24238       -2.19815
H          6.69765        2.14097       -1.80164
H          6.78212        0.40644       -2.11939
