111
-148.55908906
P         -2.54717        2.25255        0.40281
P          0.00835        0.32341        0.43335
C         -1.65224        1.94701        1.94875
C         -0.54351        1.12814        1.95210
C         -3.12299        4.00550        0.27274
C         -2.27914        4.78749       -0.71013
C         -2.08601        2.52396        3.12508
H         -2.96556        3.14689        3.12060
C         -1.39838        2.28862        4.30315
H         -1.73577        2.74022        5.22177
C         -0.28240        1.47437        4.30286
H          0.25372        1.29102        5.21945
C          0.14356        0.88915        3.12395
H          1.01060        0.24750        3.10876
Pd        -1.19920        1.37647       -1.24469
Cl        -2.68475        2.16815       -2.72391
Cl         0.30772        0.50041       -2.65863
C         -4.60101        3.84708       -0.13091
C         -4.16591        1.36201        0.31851
H         -2.32822        4.34050       -1.70424
H         -2.62131        5.82148       -0.79631
H         -1.22887        4.80074       -0.40882
H         -4.67132        3.87776       -1.22704
H         -5.19110        4.70436        0.22741
H         -4.19563        0.87776       -0.66660
C         -5.19569        2.50575        0.38673
C         -4.28458        0.33897        1.42832
H         -3.04543        4.43848        1.27803
H         -5.51994        2.62797        1.42932
H         -6.10357        2.23671       -0.17429
H         -5.23952       -0.18997        1.38447
H         -3.48221       -0.40080        1.37495
H         -4.21764        0.81994        2.40588
C         -1.16832       -4.08089        0.41855
C         -0.17297       -3.61662        1.31603
C          0.17240       -2.27539        1.27636
C         -0.48409       -1.39987        0.45088
C         -1.52705       -1.82400       -0.33109
C         -1.91556       -3.15243       -0.34938
O         -1.39186       -5.47487        0.26250
C          0.54245       -4.54566        2.30995
H          0.97341       -1.89591        1.88699
H         -2.03092       -1.10467       -0.95084
C         -3.10048       -3.57146       -1.23395
C          4.47184        0.83587       -0.31673
C          3.82138       -0.36466       -0.70668
C          2.46156       -0.47830       -0.47062
C          1.77076        0.50461        0.18749
C          2.41591        1.61471        0.66665
C          3.77682        1.78946        0.47427
O          5.78195        1.11715       -0.78225
C          4.53328       -1.55172       -1.37680
H          1.91663       -1.33825       -0.82199
H          1.83871        2.35520        1.19430
C          4.44850        2.99856        1.14740
C          1.80309       -5.12613        1.65201
C          0.96308       -3.76631        3.57686
C         -0.38622       -5.68326        2.77258
C         -3.85638       -4.76413       -0.62096
C         -4.11938       -2.41712       -1.37204
C         -2.58183       -3.93348       -2.63392
C         -0.57296       -6.08558       -0.72695
H          2.32843       -5.79295        2.33524
H          1.55766       -5.68924        0.75488
H          2.48847       -4.32927        1.36638
H          0.11304       -3.23624        4.00578
H          1.35288       -4.44391        4.33617
H          1.74727       -3.04159        3.36304
H          0.09780       -6.30189        3.52790
H         -1.30300       -5.27969        3.20110
H         -0.66257       -6.33168        1.94497
H         -3.22653       -5.64858       -0.56789
H         -4.18824       -4.52915        0.38981
H         -4.73328       -5.01962       -1.21530
H         -3.71084       -1.58202       -1.93904
H         -5.01315       -2.75167       -1.89807
H         -4.42639       -2.05246       -0.39265
H         -1.87446       -4.75810       -2.59135
H         -3.40081       -4.22547       -3.29069
H         -2.07222       -3.08319       -3.08669
H          0.08685       -5.34698       -1.18405
H          0.02447       -6.87501       -0.27122
H         -1.20174       -6.53578       -1.49491
C          5.78735        1.80589       -2.02165
C          4.09235       -2.86602       -0.69502
C          4.14646       -1.60295       -2.86418
C          6.06372       -1.46864       -1.24398
C          3.97339        3.09778        2.61436
C          5.98172        2.87353        1.18038
C          4.05294        4.28423        0.40268
H          3.03238       -3.06447       -0.84476
H          4.64080       -3.71664       -1.09892
H          4.28110       -2.82293        0.37726
H          4.61385       -2.45355       -3.35950
H          3.06734       -1.69607       -2.98247
H          4.45882       -0.69906       -3.38334
H          6.54164       -2.36462       -1.63943
H          6.46125       -0.61626       -1.78967
H          6.35345       -1.36109       -0.19930
H          4.17022        2.16707        3.14577
H          4.49326        3.89996        3.13753
H          2.90679        3.30513        2.68243
H          6.43051        3.69029        1.74522
H          6.28073        1.93427        1.64433
H          6.40135        2.89825        0.17754
H          4.38530        4.25736       -0.63320
H          4.49701        5.16010        0.87499
H          2.97137        4.41604        0.40079
H          5.28273        2.76497       -1.91871
H          6.81779        1.97258       -2.33618
H          5.26997        1.21798       -2.77793
