64
-97.21311815
Cl        -1.58207       -1.33570       -2.55791
Cl         1.66838       -1.22326       -2.89042
P          1.94760       -0.61881        0.26509
C          2.14321       -2.29689        1.02502
C          3.73823       -0.19922       -0.01018
P         -1.28280       -0.15177        0.42797
C          1.25361        0.59586        1.44220
C         -0.17444        0.83129        1.50478
C         -0.40722        1.94087        2.41743
C          0.88041        2.39874        2.90810
C          1.90842        1.57651        2.29437
H         -1.38183        2.32179        2.72848
H          1.04591        3.20960        3.62111
Pd         0.18402       -0.92159       -1.24604
H          2.98503        1.66287        2.45602
C         -5.04878        2.04652       -0.92699
C         -4.08573        2.73032       -0.21263
C         -2.94141        2.07514        0.20243
C         -2.75597        0.74494       -0.10086
C         -3.71949        0.06168       -0.80755
C         -4.86784        0.71078       -1.22433
H         -5.94152        2.55522       -1.25261
H         -4.22445        3.77322        0.02107
H         -2.18647        2.60363        0.75658
H         -3.56595       -0.97977       -1.03948
H         -5.61708        0.17419       -1.78294
C         -2.58907       -3.97362        2.50502
C         -2.38940       -2.82269        3.24276
C         -1.99951       -1.65647        2.60855
C         -1.81055       -1.65400        1.24596
C         -2.01561       -2.79497        0.50567
C         -2.40495       -3.96197        1.13604
H         -2.89244       -4.88251        2.99862
H         -2.53552       -2.83222        4.31041
H         -1.83392       -0.74941        3.16814
H         -1.88056       -2.75978       -0.56351
H         -2.56587       -4.85812        0.55960
C          4.13461       -0.24631       -1.46948
H          3.89321        0.80913        0.39526
C          4.46941       -1.25649        0.84025
H          4.63861       -0.86948        1.85580
C          3.65495       -2.57474        0.92045
H          5.46929       -1.44227        0.42155
C          1.62932       -2.29137        2.44839
H          1.56564       -2.99859        0.40767
H          3.97898       -3.17986        1.77940
H          3.86349       -3.18682        0.03096
H          2.18102       -1.56820        3.05233
H          0.57470       -2.01356        2.48909
H          1.73831       -3.27123        2.91922
H          3.57385        0.47387       -2.06690
H          5.19763       -0.03394       -1.60240
H          3.94163       -1.23657       -1.88496
Fe         0.80667        2.48800        0.85781
C          1.30999        2.23632       -1.14146
C          2.18627        3.18299       -0.47912
C          1.37046        4.26948        0.03703
C         -0.01500        3.97794       -0.29022
C         -0.04889        2.72068       -1.01580
H          1.61154        1.34175       -1.68869
H          3.27556        3.11903       -0.42544
H          1.73517        5.15421        0.56422
H         -0.87473        4.61292       -0.06426
H         -0.93256        2.24734       -1.44787
