58
-89.86635558
P          1.69297       -0.29074        0.94392
C          1.78468        1.50991        0.96987
C          1.98072        2.14261       -0.23727
C          2.02184        3.52297       -0.30007
C          1.86644        4.26501        0.85329
C          1.67695        3.62941        2.06434
C          1.63823        2.24828        2.12303
H          1.49658        1.75167        3.06784
H          2.08973        1.54486       -1.12883
C          3.26927       -1.00373        0.47068
C          3.32801       -2.33913        0.14491
C          4.53559       -2.90176       -0.22915
C          5.67417       -2.12131       -0.27277
C          5.60925       -0.78139        0.05547
C          4.40059       -0.22156        0.42829
H          4.33281        0.82386        0.68246
H          2.42769       -2.93287        0.17499
C          1.20173       -1.02003        2.56868
C         -0.29138       -1.25963        2.74275
C         -1.15732       -0.04449        2.42588
P         -1.67129       -0.08671        0.66239
C         -2.95393       -1.33682        0.50299
C         -2.70120       -2.52444       -0.14498
C         -3.69425       -3.48244       -0.23921
C         -4.93339       -3.24695        0.32261
C         -5.18070       -2.05827        0.98024
C         -4.18515       -1.10188        1.07290
H         -4.36219       -0.17093        1.58848
H         -1.73109       -2.69613       -0.58255
C         -2.24983        1.52282        0.10620
C         -1.48679        2.63708        0.36895
C         -1.90032        3.87855       -0.07814
C         -3.07565        3.99491       -0.79307
C         -3.83261        2.87287       -1.06710
C         -3.41469        1.63303       -0.61835
H         -3.98555        0.74700       -0.84340
H         -0.55454        2.52966        0.89690
Pd         0.11895       -0.44988       -0.76274
Cl         1.84652       -0.66222       -2.18273
Cl        -1.45783       -0.67134       -2.35039
H         -2.07970       -0.03141        3.01178
H         -0.63282        0.88794        2.63469
H         -0.60932       -2.09247        2.09840
H         -0.48461       -1.60528        3.77073
H          1.75953       -1.95395        2.67443
H          1.58155       -0.35296        3.34376
H          2.16892        4.01578       -1.24695
H          1.55870        4.20960        2.96482
H          4.58528       -3.94612       -0.49001
H          6.49701       -0.17166        0.01832
H         -3.50060       -4.40983       -0.75276
H         -6.14664       -1.87510        1.42148
H         -1.29997        4.75026        0.12400
H         -4.74441        2.96095       -1.63465
H          1.89451        5.34154        0.80853
H          6.61472       -2.55819       -0.56638
H         -5.70834       -3.99240        0.24847
H         -3.39848        4.96129       -1.14465
