111
-148.55483844
P         -2.46859        2.14004        0.92096
P          0.09024        0.31792        0.55887
C         -1.42910        1.75440        2.35587
C         -0.29516        0.99088        2.18440
C         -3.11082        3.87456        0.99422
C         -2.39586        4.77253        0.00831
C         -1.76803        2.20933        3.61416
H         -2.66639        2.78952        3.74726
C         -0.96072        1.90479        4.69672
H         -1.22414        2.25979        5.67969
C          0.18024        1.14554        4.51985
H          0.80776        0.90786        5.36300
C          0.51252        0.68347        3.25891
H          1.39206        0.07810        3.10384
Pd        -1.29881        1.40394       -0.93273
Cl        -2.91145        2.37315       -2.15660
Cl         0.00858        0.75656       -2.63971
C         -4.61712        3.69264        0.73035
C         -4.06162        1.19918        0.89690
H         -1.32112        4.79970        0.20364
H         -2.53309        4.41486       -1.01294
H         -2.77543        5.79602        0.05228
H         -4.80293        3.81404       -0.34573
H         -5.19282        4.49149        1.22210
H         -4.17579        0.82151       -0.12808
C         -5.11130        2.28884        1.18436
C         -4.03972        0.05773        1.89041
H         -2.94431        4.22374        2.02122
H         -5.31866        2.30461        2.26318
H         -6.06827        2.03490        0.70364
H         -4.98458       -0.49069        1.89070
H         -3.23791       -0.64802        1.66165
H         -3.87029        0.42809        2.90315
C         -1.13286       -4.05346        0.18016
C         -1.18570       -3.42619        1.45421
C         -0.79514       -2.10052        1.54924
C         -0.45012       -1.38498        0.43279
C         -0.53388       -1.94840       -0.81282
C         -0.90617       -3.26961       -0.98187
O         -1.22054       -5.46554        0.07666
C         -1.65915       -4.13100        2.73664
H         -0.74623       -1.61341        2.50759
H         -0.29454       -1.33323       -1.66355
C         -1.05369       -3.79151       -2.42041
C          4.41144        0.82466       -0.77657
C          3.81852       -0.46354       -0.77884
C          2.50405       -0.57852       -0.36130
C          1.80920        0.50638        0.10480
C          2.40708        1.73518        0.20073
C          3.72291        1.91979       -0.19322
O          5.67612        1.02365       -1.39158
C          4.55446       -1.71976       -1.27056
H          1.99430       -1.52408       -0.41492
H          1.82134        2.55678        0.57632
C          4.36477        3.30545       -0.02124
C         -2.65831       -3.22069        3.48453
C         -2.39030       -5.45251        2.44265
C         -0.44945       -4.40449        3.64534
C          0.34034       -3.94211       -3.05217
C         -1.79631       -5.13711       -2.48255
C         -1.87734       -2.78044       -3.24941
C          0.04323       -6.10085        0.17660
H         -3.49874       -2.96313        2.84078
H         -3.05419       -3.72208        4.36733
H         -2.19282       -2.29507        3.81904
H         -2.80098       -5.88572        3.35436
H         -3.20994       -5.29078        1.74341
H         -1.71790       -6.18598        2.00398
H          0.27215       -5.05453        3.15412
H          0.06082       -3.47727        3.90434
H         -0.75963       -4.88689        4.57191
H          0.26602       -4.29326       -4.08097
H          0.86762       -2.98878       -3.06095
H          0.94933       -4.65355       -2.49751
H         -2.75925       -5.06807       -1.97772
H         -1.97348       -5.44087       -3.51399
H         -1.22338       -5.92607       -2.00117
H         -2.06418       -3.16163       -4.25291
H         -2.84056       -2.59013       -2.77701
H         -1.36165       -1.82766       -3.35647
H         -0.08613       -7.17796        0.06882
H          0.70752       -5.73749       -0.60598
H          0.49320       -5.88768        1.14487
C          5.60163        1.36698       -2.76973
C          4.01693       -2.98308       -0.55875
C          4.32903       -1.88017       -2.78177
C          6.06010       -1.63619       -0.96215
C          4.09120        4.14980       -1.27523
C          3.76712        4.03436        1.20395
C          5.88051        3.19128        0.22313
H          4.03975       -2.85790        0.52348
H          2.99445       -3.21100       -0.85664
H          4.62261       -3.85421       -0.80750
H          4.82005       -2.77762       -3.15716
H          3.26550       -1.95770       -3.00578
H          4.72022       -1.02811       -3.33201
H          6.52885       -0.81138       -1.49298
H          6.22537       -1.48389        0.10389
H          6.57204       -2.55167       -1.25763
H          4.51065        3.68412       -2.16367
H          3.01943        4.26312       -1.43668
H          4.52560        5.14452       -1.17913
H          2.72363        4.30223        1.04532
H          3.82991        3.41000        2.09485
H          4.30698        4.95948        1.40482
H          6.08323        2.55771        1.08593
H          6.32219        4.16989        0.40947
H          6.39011        2.75920       -0.63428
H          6.06180        2.34177       -2.93014
H          6.14901        0.63196       -3.35961
H          4.56182        1.39680       -3.09803
