171
-217.84671634
P         -1.59754        0.44387       -0.28725
P          1.59299       -0.38021       -0.38013
C         -0.89604        1.43317       -1.61238
C          0.84066       -1.28934       -1.73122
C         -0.12660        0.84371       -2.60931
C          0.49670        1.67290       -3.56165
C          0.29905        3.04240       -3.50106
C         -0.48849        3.60483       -2.51899
C         -1.07838        2.79405       -1.56965
C          1.03895       -2.64649       -1.79470
C          0.43828       -3.38838       -2.79298
C         -0.37531       -2.76212       -3.71360
C         -0.58915       -1.39444       -3.66511
C          0.04579       -0.63402       -2.66432
Cl         1.68949        0.44915        2.80018
Cl        -1.46509       -0.34754        2.93634
C         -1.46827       -0.75271       -4.68087
C          1.36398        1.10799       -4.63189
H         -0.63805        4.67164       -2.48673
H         -1.68377        3.22580       -0.78936
H          1.66677       -3.12651       -1.06112
H          0.60252       -4.45200       -2.84963
H          0.77544        3.67096       -4.23451
H         -0.85609       -3.33831       -4.48611
C         -3.82941       -3.29228       -1.50495
C         -2.84305       -3.38858       -0.53058
C         -2.13820       -2.23655       -0.20914
C         -2.42683       -1.04660       -0.82934
C         -3.40964       -0.96495       -1.78462
C         -4.13518       -2.09535       -2.14183
H         -4.39227       -4.16767       -1.76836
H         -1.36773       -2.25957        0.54190
H         -3.61495       -0.00745       -2.23257
C         -4.45278        2.81292        2.32922
C         -4.95177        1.78373        1.53890
C         -4.05621        1.08887        0.73866
C         -2.72432        1.41850        0.72283
C         -2.24861        2.43960        1.50691
C         -3.10380        3.15107        2.33786
H         -5.12917        3.35866        2.95822
H         -4.40112        0.27098        0.13072
H         -1.19725        2.67157        1.48431
C          4.29072       -2.99937        2.16046
C          2.91699       -3.20529        2.21196
C          2.11272       -2.42310        1.39410
C          2.66297       -1.45624        0.58936
C          4.02089       -1.25825        0.56076
C          4.86640       -2.03655        1.34066
H          4.93536       -3.59162        2.78221
H          1.04334       -2.54936        1.40786
H          4.41546       -0.47690       -0.06334
C          3.92423        3.26557       -1.68595
C          2.93347        3.41179       -0.72343
C          2.22898        2.27754       -0.34177
C          2.49441        1.06540       -0.92780
C          3.46203        0.94028       -1.89417
C          4.20578        2.04625       -2.28971
H          4.50856        4.12470       -1.95907
H          1.47331        2.32763        0.42253
H          3.63587       -0.03014       -2.32720
Pd         0.04490        0.07910        1.31888
C         -2.38492       -4.47821        1.69358
C         -2.50405       -4.71027        0.17342
C         -1.16905       -5.23529       -0.37789
C         -3.59279       -5.77514       -0.06309
H         -3.30550       -4.05107        2.09056
H         -2.19453       -5.41508        2.21683
H         -1.57009       -3.79781        1.93493
H         -0.87289       -6.15805        0.12062
H         -1.24861       -5.43812       -1.44554
H         -0.37657       -4.50184       -0.23682
H         -3.37076       -6.68504        0.49444
H         -4.56823       -5.41428        0.26284
H         -3.65846       -6.04721       -1.11617
C         -5.41607       -0.64946       -3.80049
C         -5.29261       -2.04093       -3.14901
C         -6.60870       -2.35229       -2.41277
C         -5.06226       -3.08168       -4.26103
H         -5.63064        0.11620       -3.05536
H         -4.49932       -0.37610       -4.32149
H         -6.22704       -0.63416       -4.52850
H         -6.58612       -3.34684       -1.96853
H         -6.78144       -1.63326       -1.61211
H         -7.45767       -2.30926       -3.09480
H         -5.85560       -3.03607       -5.00693
H         -4.11409       -2.90467       -4.76708
H         -5.04277       -4.09457       -3.86109
C         -6.98906        1.53353        0.09965
C         -6.43197        1.37645        1.52698
C         -7.27207        2.24751        2.48009
C         -6.55478       -0.09393        1.97003
H         -8.04404        1.26293        0.06010
H         -6.89117        2.56422       -0.24063
H         -6.45569        0.89713       -0.60540
H         -6.92286        2.15285        3.50811
H         -7.22682        3.29814        2.19390
H         -8.31895        1.94486        2.45852
H         -7.59789       -0.40864        1.99437
H         -6.02257       -0.75894        1.29067
H         -6.13626       -0.23110        2.96683
C         -2.07667        5.43184        2.31909
C         -2.53355        4.27117        3.21934
C         -1.33290        3.73092        4.02230
C         -3.58103        4.80100        4.21752
H         -1.64793        6.24094        2.91010
H         -1.32374        5.10009        1.60609
H         -2.91637        5.83370        1.75237
H         -1.62711        2.86785        4.61905
H         -0.51919        3.42101        3.36832
H         -0.94093        4.49139        4.69728
H         -3.14731        5.56350        4.86442
H         -4.42602        5.25418        3.69971
H         -3.95413        3.99887        4.85412
C          3.30418       -4.93911        4.03670
C          2.26133       -4.21626        3.16316
C          1.49789       -5.26779        2.34007
C          1.28044       -3.47072        4.08946
H          2.82023       -5.64482        4.71180
H          4.00879       -5.50053        3.42347
H          3.86343       -4.22986        4.64661
H          2.17008       -5.78770        1.65775
H          1.03113       -6.00947        2.98803
H          0.71313       -4.80261        1.74735
H          0.81377       -4.15525        4.79733
H          1.79939       -2.69816        4.65628
H          0.48631       -2.98699        3.52218
C          6.81724       -0.74659        0.33713
C          6.38864       -1.83683        1.33960
C          7.07704       -3.15652        0.94526
C          6.84353       -1.41171        2.74744
H          6.37889        0.21752        0.59441
H          7.90038       -0.62536        0.33622
H          6.51317       -1.00607       -0.67679
H          6.74488       -3.48391       -0.03979
H          8.15992       -3.03717        0.91389
H          6.85064       -3.95046        1.65588
H          7.91965       -1.24151        2.77541
H          6.34711       -0.48951        3.04895
H          6.60680       -2.17564        3.48710
C          1.43172        4.75286        0.82642
C          2.67577        4.78198       -0.08277
C          2.44264        5.83280       -1.18486
C          3.89789        5.17787        0.76370
H          1.22961        5.74130        1.23867
H          0.55163        4.43826        0.26648
H          1.57099        4.07066        1.66469
H          1.60985        5.54151       -1.82383
H          2.21139        6.80608       -0.75234
H          3.32243        5.95215       -1.81564
H          4.79566        5.24530        0.14998
H          3.74482        6.14466        1.24291
H          4.08078        4.43862        1.54339
C          5.17639        2.99674       -4.41111
C          5.35496        1.94122       -3.30273
C          5.40422        0.54865       -3.96151
C          6.68685        2.18582       -2.57078
H          5.96733        2.91443       -5.15644
H          4.22211        2.86918       -4.92005
H          5.20783        4.00816       -4.00842
H          5.59514       -0.22982       -3.22321
H          4.46690        0.32115       -4.46846
H          6.20217        0.49932       -4.70228
H          6.83069        1.45316       -1.77730
H          7.52997        2.11033       -3.25725
H          6.71020        3.17659       -2.11802
H         -1.84800        0.20736       -4.32859
H          2.27610        1.69502       -4.73931
H         -2.32759       -1.38448       -4.90681
H         -0.92696       -0.58148       -5.61221
H          0.84916        1.11108       -5.59360
H          1.65902        0.08194       -4.40837
