111
-148.54675377
P         -2.14064        2.52431        0.09533
P         -0.22519       -0.00871        0.46519
C         -1.68876        1.96088        1.75547
C         -0.86303        0.86878        1.91170
C         -1.75637        4.32683       -0.07147
C         -0.86502        4.58487       -1.26669
C         -2.10503        2.67538        2.86056
H         -2.72460        3.54730        2.72795
C         -1.70031        2.28784        4.12611
H         -2.02773        2.84391        4.98937
C         -0.86084        1.20208        4.28079
H         -0.52954        0.91023        5.26380
C         -0.43103        0.49956        3.16942
H          0.26595       -0.31753        3.27288
Pd        -1.09988        1.09049       -1.38727
Cl        -2.23420        2.19506       -2.98075
Cl         0.14106       -0.22370       -2.71838
C         -3.15279        4.97381       -0.17783
C         -3.95797        2.53889       -0.26048
H         -0.59932        5.64140       -1.34983
H          0.05919        4.00571       -1.20639
H         -1.36991        4.29895       -2.19071
H         -3.09216        5.87522       -0.80502
H         -3.47994        5.32410        0.81214
H         -4.11539        1.81747       -1.07423
C         -4.20640        3.98193       -0.74629
C         -4.77393        2.14555        0.95226
H         -1.24889        4.62559        0.85605
H         -5.22345        4.29399       -0.46765
H         -4.17718        4.01408       -1.84542
H         -4.64380        2.86912        1.75807
H         -5.84077        2.10411        0.72024
H         -4.47215        1.16711        1.33340
C         -1.13916       -4.49235        0.53706
C         -0.56685       -3.89811       -0.61522
C         -0.33899       -2.53314       -0.60243
C         -0.56977       -1.77496        0.51562
C         -1.03978       -2.36622        1.66064
C         -1.29947       -3.72540        1.71835
O         -1.58567       -5.84024        0.49803
C         -0.21937       -4.69907       -1.88030
H         -0.00849       -2.02935       -1.49215
H         -1.22841       -1.74459        2.51595
C         -1.77521       -4.34192        3.04399
C          4.15821        1.17093        0.04859
C          3.70741       -0.03056       -0.56152
C          2.38655       -0.40421       -0.37796
C          1.50736        0.40998        0.28598
C          1.90387        1.64080        0.74479
C          3.21625        2.06580        0.62080
O          5.54775        1.43428        0.15826
C          4.58017       -0.91320       -1.47031
H          2.02849       -1.33884       -0.77127
H          1.17013        2.27121        1.21828
C          3.56686        3.47833        1.11694
C          0.18333       -6.14374       -1.53268
C         -1.42647       -4.69680       -2.83019
C          0.98491       -4.06397       -2.61237
C         -1.22216       -3.54608        4.24853
C         -3.30995       -4.30799        3.10004
C         -1.27041       -5.78866        3.19410
C         -2.93195       -5.99348        0.06568
H          1.01280       -6.15092       -0.82632
H         -0.64175       -6.68960       -1.08254
H          0.49191       -6.68973       -2.42384
H         -1.69358       -3.67793       -3.10980
H         -1.20649       -5.25047       -3.74255
H         -2.29727       -5.15045       -2.36293
H          1.82734       -3.93883       -1.93283
H          1.31269       -4.69492       -3.43814
H          0.73411       -3.09208       -3.03425
H         -0.13994       -3.43922        4.17892
H         -1.66272       -2.55219        4.31249
H         -1.44816       -4.05556        5.18501
H         -3.67571       -4.72685        4.03720
H         -3.67566       -3.28438        3.02208
H         -3.74731       -4.87850        2.28442
H         -1.68510       -6.43559        2.42507
H         -0.18463       -5.82649        3.11275
H         -1.55298       -6.20404        4.16111
H         -3.50524       -6.51147        0.83442
H         -3.38205       -5.01948       -0.13020
H         -2.95973       -6.59560       -0.84226
C          6.12515        0.84602        1.31172
C          3.82637       -1.17010       -2.79371
C          5.91614       -0.24458       -1.83774
C          4.85559       -2.25479       -0.77165
C          3.57738        3.48718        2.65443
C          4.92919        3.96131        0.59002
C          2.50657        4.48225        0.61330
H          2.90187       -1.72034       -2.63209
H          3.57148       -0.22827       -3.27867
H          4.43668       -1.75122       -3.48441
H          5.74627        0.74200       -2.26756
H          6.54974       -0.12196       -0.96260
H          6.46798       -0.84168       -2.56335
H          5.39438       -2.10564        0.16260
H          3.92610       -2.77392       -0.54038
H          5.45516       -2.90779       -1.40532
H          2.60865        3.18532        3.05180
H          4.32541        2.80003        3.04553
H          3.80222        4.48239        3.03705
H          5.74166        3.35802        0.98831
H          4.96587        3.89545       -0.49680
H          5.11659        4.99623        0.87527
H          2.77502        5.50165        0.88933
H          1.52416        4.28148        1.03726
H          2.42372        4.43960       -0.47221
H          7.19766        1.04155        1.31670
H          5.67820        1.27017        2.20955
H          5.95383       -0.22968        1.30824
