105
-153.06503065
Cl        -0.04740        1.96571        3.08436
Pd        -0.44994        1.32608        0.95631
P         -1.08233        0.49873       -1.15195
N         -0.66999       -1.00319       -1.97435
C          0.23314       -2.00459       -1.62123
C          0.35315       -2.48912       -0.29419
C          1.29279       -3.50447       -0.01386
C          1.38121       -4.05458        1.39077
C          2.61202       -4.93492        1.66233
C          2.86756       -5.90040        0.50231
C          3.09431       -5.12393       -0.80245
C          2.07470       -4.03926       -1.04231
C          1.90939       -3.57232       -2.33997
C          1.00476       -2.58470       -2.62683
H          0.89719       -2.22452       -3.63513
H          2.51386       -3.99145       -3.12656
H          4.09189       -4.66903       -0.79340
H          3.72002       -6.55905        0.72145
H          3.49272       -4.29498        1.80025
H          1.37237       -3.21794        2.09781
C         -0.65622       -2.12165        0.72917
C         -0.25143       -1.51314        1.94802
C         -1.19683       -1.36936        2.96776
C         -2.49147       -1.78404        2.79461
C         -2.91018       -2.36625        1.60451
C         -4.34326       -2.83111        1.50683
C         -4.79030       -3.19879        0.08315
C         -3.70730       -4.01016       -0.63233
C         -2.39915       -3.21052       -0.72251
C         -1.99198       -2.53707        0.56623
H         -1.58347       -3.86419       -1.05595
H         -4.04725       -4.31928       -1.63092
H         -4.98989       -2.28319       -0.48693
H         -4.99676       -2.05360        1.92188
H         -3.20485       -1.65970        3.59171
H         -0.89834       -0.90002        3.88872
N          1.04333       -1.00854        2.14195
P          1.61546        0.21063        1.00530
C          2.61795       -0.33947       -0.36172
C          2.41864        0.23974       -1.59005
C          3.22740       -0.11648       -2.65351
C          4.24229       -1.04938       -2.48492
C          4.44691       -1.59671       -1.22468
C          3.63507       -1.24075       -0.16259
H          3.78680       -1.66017        0.81933
H          5.24460       -2.30513       -1.08075
C          5.11707       -1.43066       -3.62749
H          3.07153        0.32622       -3.62229
H          1.62520        0.95780       -1.71043
C          2.54143        1.51719        1.81714
C          3.24345        1.25507        2.96885
C          3.95597        2.26918        3.58302
C          3.97695        3.54725        3.04053
C          3.26253        3.78993        1.87509
C          2.55163        2.77476        1.26115
H          1.99898        2.95943        0.35292
H          3.26263        4.78043        1.45317
C          4.71638        4.64789        3.71825
H          4.49893        2.07363        4.49190
H          3.23661        0.25956        3.38223
H          1.18674       -0.57181        3.04333
H         -0.94361       -0.91568       -2.94508
C         -0.62088        1.87688       -2.21613
C         -0.90706        3.16528       -1.83295
C         -0.53977        4.22700       -2.63703
C          0.11307        4.00646       -3.84172
C          0.39727        2.70019       -4.21507
C          0.02537        1.64123       -3.40747
H          0.25605        0.63019       -3.69788
H          0.91551        2.51768       -5.14100
C          0.53798        5.14983       -4.69597
H         -0.75667        5.23626       -2.33121
H         -1.41847        3.33448       -0.90031
C         -2.87772        0.50749       -1.07560
C         -3.56701        0.71166       -2.24749
C         -4.95075        0.71736       -2.24189
C         -5.65278        0.51772       -1.06116
C         -4.93892        0.32322        0.11259
C         -3.55690        0.30308        0.10053
H         -3.00204        0.14065        1.01021
H         -5.47301        0.19063        1.03779
C         -7.14119        0.55003       -1.04373
H         -5.49376        0.88282       -3.15664
H         -3.01911        0.87034       -3.16332
Cl        -2.25489        2.68299        1.02968
H          3.09317       -5.81075       -1.65859
H          2.49791       -5.48462        2.60732
H          2.00253       -6.56538        0.38532
H          0.46635       -4.62252        1.59734
H         -3.52708       -4.94136       -0.08070
H         -2.49532       -2.44083       -1.49688
H         -4.46999       -3.69833        2.16591
H         -5.74252       -3.74762        0.10026
H          5.97517       -0.76102       -3.69915
H          5.49214       -2.44873       -3.51303
H          4.57263       -1.38373       -4.57173
H          5.10011        5.36819        2.99437
H          4.06474        5.18159        4.41136
H          5.56601        4.26264        4.28373
H          0.53950        4.87358       -5.75133
H         -0.13435        6.00079       -4.57802
H          1.54458        5.47705       -4.43204
H         -7.50357        1.55072       -0.80470
H         -7.55371        0.26475       -2.01249
H         -7.53992       -0.13976       -0.29842
