45
-71.81782671
C          0.42751        0.37252        2.50750
P          0.99794        0.53781        0.78153
P         -1.60645        0.43111       -1.00013
C         -2.38308        0.26642       -2.64182
Cl         1.50360       -2.52608        0.48029
H          0.80979       -0.54983        2.93554
H         -3.19229        0.98347       -2.74613
Cl        -1.02163       -2.64873       -1.76591
C          0.36992        2.04825        0.02289
C         -0.75697        2.00597       -0.76877
C         -1.24965        3.16360       -1.33527
C         -0.59964        4.36568       -1.11637
C          0.53486        4.40607       -0.32881
C          1.02087        3.24415        0.24453
H         -2.14123        3.12219       -1.93953
H         -0.98062        5.27111       -1.55940
H          1.04099        5.34209       -0.15891
H          1.90436        3.25907        0.86248
Pd        -0.01777       -1.15395       -0.43567
H         -2.78336       -0.73640       -2.76042
H         -0.65810        0.35019        2.53670
H         -1.64528        0.44548       -3.41869
C         -4.46918       -0.37704        2.43257
C         -4.15367       -1.38425        1.54146
C         -3.29203       -1.12690        0.49096
C         -2.76071        0.13271        0.33711
C         -3.06225        1.13741        1.22708
C         -3.92349        0.88285        2.27909
H         -5.13958       -0.57603        3.25268
H         -4.57101       -2.36976        1.66716
H         -3.00326       -1.90550       -0.19760
H         -2.62048        2.11224        1.09783
H         -4.16613        1.66614        2.97826
C          5.51372        0.29885        0.28527
C          4.97903        0.51710        1.53965
C          3.60720        0.59019        1.70212
C          2.78173        0.44373        0.61037
C          3.30972        0.23057       -0.64258
C          4.68149        0.15563       -0.80719
H          6.58242        0.23920        0.15886
H          5.62898        0.62893        2.39196
H          3.17872        0.76025        2.67647
H          2.64623        0.12125       -1.48629
H          5.09797       -0.01662       -1.78602
H          0.77752        1.21349        3.09915
