59
-75.80064409
Cl         1.64366        0.72495        2.32478
P          1.66234       -0.02086       -0.82637
P         -1.52127       -0.12594       -0.83190
C          0.69557        0.25069       -2.37506
H          0.42305        1.30643       -2.44534
H          1.33238        0.01405       -3.23327
C         -0.53011       -0.61432       -2.31299
H         -0.25316       -1.66694       -2.20993
H         -1.15498       -0.52315       -3.20717
C          2.64691       -1.57289       -1.02945
H          2.15962       -2.18281       -1.80029
C          3.05377        1.18033       -0.57786
H          3.03368        1.44369        0.48714
C         -2.69489       -1.44803       -0.26736
H         -2.58278       -1.51169        0.82158
C         -2.74601        1.18164       -1.31294
H         -2.80508        1.09583       -2.40663
C          4.00131       -1.02499       -1.52296
H          4.80002       -1.74714       -1.29681
H          3.98400       -0.93746       -2.61995
C          4.32506        0.36225       -0.90208
H          4.96800        0.94173       -1.57956
H          4.92107        0.22368        0.01178
C         -4.07997       -0.87965       -0.62555
H         -4.38945       -1.28675       -1.59778
H         -4.83579       -1.22820        0.09442
C         -4.06091        0.67160       -0.69907
H         -4.17374        1.07972        0.31295
H         -4.92297        1.05149       -1.26839
C          2.73467       -2.35174        0.28042
H          2.99638       -1.65299        1.08637
H          3.57543       -3.05741        0.22432
C          2.87974        2.44671       -1.40705
H          3.82295        3.01080       -1.41214
H          2.70675        2.16474       -2.45370
C         -2.38671       -2.80056       -0.89780
H         -2.48403       -2.71414       -1.98801
H         -1.33225       -3.05017       -0.71884
C         -2.34517        2.60937       -0.93811
H         -1.38317        2.83718       -1.41568
H         -3.06120        3.30811       -1.39282
C          1.45730       -3.10593        0.62108
H          0.60387       -2.43361        0.70485
H          1.54018       -3.64473        1.56760
H          1.21275       -3.83657       -0.15232
C          1.75425        3.33109       -0.88959
H          1.97080        3.69542        0.11656
H          0.81507        2.78142       -0.82630
H          1.58742        4.20245       -1.52675
C         -3.27896       -3.91618       -0.37442
H         -4.33140       -3.71287       -0.58009
H         -3.17818       -4.02536        0.70710
H         -3.03719       -4.88090       -0.82635
C         -2.25341        2.88910        0.55460
H         -1.57783        2.19583        1.05282
H         -1.88590        3.89790        0.75713
H         -3.22313        2.79975        1.04589
Cl        -1.56682        0.05452        2.37514
Pd         0.06614        0.15537        0.83836
