171
-217.84536710
P         -1.60139        0.43206       -0.31787
P          1.58555       -0.38721       -0.36324
C         -0.88801        1.40869       -1.64634
C          0.85663       -1.31416       -1.71433
C         -0.10150        0.81007       -2.62443
C          0.53593        1.63027       -3.57542
C          0.33141        2.99949       -3.53541
C         -0.47580        3.57050       -2.57452
C         -1.07742        2.76914       -1.62455
C          1.05999       -2.67107       -1.76486
C          0.47342       -3.42229       -2.76455
C         -0.33154       -2.80568       -3.69926
C         -0.54951       -1.43824       -3.66422
C          0.07238       -0.66819       -2.66266
Cl         1.65152        0.51853        2.81548
Cl        -1.54394       -0.35703        2.87832
C         -1.41870       -0.80635       -4.69462
C          1.42773        1.05691       -4.62092
H         -0.63036        4.63698       -2.55823
H         -1.69763        3.20830       -0.86029
H          1.68097       -3.14341       -1.02065
H          0.64147       -4.48582       -2.81113
H          0.81817        3.62103       -4.26804
H         -0.80185       -3.38933       -4.47261
C         -3.82613       -3.31093       -1.52619
C         -4.12795       -2.11761       -2.17165
C         -3.40575       -0.98481       -1.81523
C         -2.42857       -1.06136       -0.85392
C         -2.14332       -2.24787       -0.22564
C         -2.84652       -3.40164       -0.54449
H         -4.38648       -4.18805       -1.78918
H         -3.60885       -0.02955       -2.26893
H         -1.37651       -2.26679        0.52921
C         -4.45485        2.81998        2.28137
C         -4.95042        1.76882        1.51822
C         -4.05645        1.07023        0.71937
C         -2.72927        1.41617        0.68065
C         -2.25612        2.45659        1.44039
C         -3.11030        3.17512        2.26630
H         -5.13019        3.36931        2.90837
H         -4.39781        0.23548        0.13254
H         -1.20723        2.69790        1.40327
C          4.27159       -2.93588        2.26364
C          2.90383       -3.18756        2.26202
C          2.10259       -2.42636        1.42131
C          2.64891       -1.44033        0.63784
C          3.99930       -1.19837        0.66110
C          4.84217       -1.94710        1.47013
H          4.90570       -3.51535        2.90641
H          1.03765       -2.58502        1.39913
H          4.40003       -0.40327        0.05730
C          3.95668        3.22731       -1.67612
C          4.24756        1.99530       -2.24916
C          3.48688        0.90131       -1.85357
C          2.49397        1.05017       -0.91709
C          2.21832        2.27416       -0.36151
C          2.94011        3.39701       -0.74462
H          4.55463        4.07771       -1.94699
H          3.66941       -0.07915       -2.25987
H          1.44231        2.34175        0.38080
Pd         0.02722        0.06959        1.32257
C         -6.59867       -2.37961       -2.46386
C         -5.27634       -2.06965       -3.18938
C         -5.03430       -3.11515       -4.29444
C         -5.39530       -0.68138       -3.84844
H         -6.57948       -3.37290       -2.01664
H         -6.77880       -1.65846       -1.66677
H         -7.44163       -2.33899       -3.15345
H         -4.08198       -2.93874       -4.79283
H         -5.01658       -4.12613       -3.88961
H         -5.82105       -3.07441       -5.04758
H         -5.61791        0.08740       -3.10884
H         -4.47377       -0.40952       -4.36188
H         -6.19926       -0.67044       -4.58427
C         -3.60842       -5.77994       -0.05667
C         -2.51235       -4.72000        0.16818
C         -2.38590       -4.47831        1.68628
C         -1.18232       -5.25652       -0.38371
H         -4.58098       -5.40941        0.26705
H         -3.67747       -6.06180       -1.10694
H         -3.39164       -6.68595        0.50919
H         -2.20313       -5.41329        2.21560
H         -1.56302       -3.80497        1.91990
H         -3.30068       -4.03895        2.08333
H         -1.26562       -5.46448       -1.45012
H         -0.38513       -4.52718       -0.24814
H         -0.89064       -6.17833        0.11921
C         -7.26353        2.21960        2.48299
C         -6.42408        1.33903        1.53807
C         -6.51677       -0.12200        2.01789
C         -7.00466        1.45324        0.11605
H         -8.30600        1.90138        2.48346
H         -6.89859        2.15372        3.50779
H         -7.23781        3.26390        2.17226
H         -7.55418       -0.45255        2.06517
H         -5.98352       -0.79460        1.34688
H         -6.08172       -0.22841        3.01137
H         -6.47178        0.80863       -0.58190
H         -8.05567        1.16537        0.09903
H         -6.92833        2.47693       -0.24989
C         -2.10291        5.46327        2.18532
C         -2.54357        4.32080        3.11658
C         -1.33297        3.80987        3.92360
C         -3.58851        4.86632        4.10890
H         -1.67655        6.28980        2.75348
H         -1.35262        5.12080        1.47464
H         -2.95010        5.84459        1.61556
H         -0.94054        4.59059        4.57478
H         -1.61663        2.96119        4.54554
H         -0.52274        3.48764        3.27130
H         -3.15738        5.64969        4.73216
H         -4.44189        5.29749        3.58605
H         -3.94871        4.07763        4.76925
C          1.53154       -5.28514        2.32123
C          2.24724       -4.22827        3.18019
C          1.22417       -3.51990        4.08961
C          3.28250       -4.94057        4.07127
H          1.06595       -6.04762        2.94546
H          0.75153       -4.83061        1.71406
H          2.23424       -5.77845        1.64998
H          0.75067       -4.22671        4.77056
H          1.71000       -2.74786        4.68573
H          0.43790       -3.04151        3.50710
H          4.01925       -5.47204        3.46920
H          3.80477       -4.22922        4.71078
H          2.79740       -5.67107        4.71860
C          7.12088       -2.55975        2.42789
C          6.34484       -1.63262        1.47328
C          6.55401       -0.17539        1.92705
C          6.90428       -1.81572        0.04997
H          7.00864       -3.60424        2.13765
H          8.18536       -2.32592        2.41326
H          6.77294       -2.44581        3.45438
H          6.13657       -0.01903        2.92148
H          7.61420        0.07469        1.96149
H          6.06868        0.52501        1.24818
H          7.97427       -1.61055        0.02153
H          6.74624       -2.83651       -0.29743
H          6.41789       -1.14377       -0.65602
C          5.31476        2.91325       -4.33830
C          5.42905        1.85937       -3.21994
C          5.46851        0.46355       -3.87291
C          6.73790        2.07467       -2.43897
H          6.12652        2.80552       -5.05756
H          4.37366        2.80755       -4.87647
H          5.36088        3.92586       -3.94015
H          6.28650        0.39509       -4.58992
H          5.62193       -0.31650       -3.12768
H          4.54159        0.25401       -4.40610
H          6.83293        1.34285       -1.63694
H          7.60440        1.97501       -3.09243
H          6.76787        3.06695       -1.98983
C          1.41237        4.77263        0.74834
C          2.67377        4.78040       -0.13687
C          2.46521        5.80866       -1.26472
C          3.87999        5.19056        0.72561
H          1.53297        4.10518        1.60124
H          1.20633        5.76916        1.13857
H          0.54198        4.45119        0.17729
H          3.35684        5.91083       -1.88178
H          1.64286        5.50721       -1.91250
H          2.23042        6.79175       -0.85703
H          4.78976        5.24527        0.12856
H          3.71926        6.16645        1.18340
H          4.04630        4.46597        1.52259
H         -2.27293       -1.44271       -4.92705
H          0.93381        1.04864       -5.59350
H         -0.86659       -0.63834       -5.62021
H         -1.80646        0.15429       -4.35278
H          1.72025        0.03395       -4.38057
H          2.34087        1.64534       -4.71438
