111
-148.55153272
P         -2.57324        1.99497        0.76092
P          0.19489        0.46810        0.44403
C         -1.45170        1.84071        2.18072
C         -0.23510        1.21101        2.02862
C         -3.57167        3.55010        0.86523
C         -3.46433        4.35637       -0.41012
C         -1.81754        2.33618        3.41621
H         -2.77686        2.81196        3.53706
C         -0.95860        2.20574        4.49392
H         -1.24436        2.59284        5.45835
C          0.26157        1.57706        4.33650
H          0.92873        1.47244        5.17623
C          0.62235        1.07322        3.09989
H          1.56380        0.56430        2.96284
Pd        -1.28040        1.42585       -1.06343
Cl        -2.97407        1.94487       -2.43561
Cl         0.11143        0.79958       -2.71600
C         -4.99382        3.02601        1.15599
C         -3.92244        0.72867        0.75845
H         -4.03004        5.28886       -0.34488
H         -2.42506        4.60492       -0.63772
H         -3.86017        3.79126       -1.25515
H         -5.73400        3.71167        0.71818
H         -5.18352        3.03872        2.23940
H         -3.76581        0.09877       -0.12826
C         -5.19922        1.58239        0.61548
C         -3.87526       -0.10997        2.01670
H         -3.17828        4.12753        1.71246
H         -6.03213        1.08791        1.13629
H         -5.49761        1.63071       -0.44220
H         -4.00444        0.51569        2.90188
H         -4.66346       -0.86663        2.02588
H         -2.91506       -0.62107        2.11247
C         -1.24699       -3.85436        0.31839
C         -1.02048       -3.22844        1.57123
C         -0.55338       -1.92456        1.57994
C         -0.37103       -1.23240        0.41179
C         -0.67718       -1.80288       -0.79488
C         -1.15943       -3.09641       -0.87688
O         -1.53225       -5.24469        0.26175
C         -1.24900       -3.95628        2.90560
H         -0.32335       -1.42757        2.50567
H         -0.53141       -1.21207       -1.68213
C         -1.57122       -3.64758       -2.25093
C          4.61512        0.78846       -0.61152
C          3.96539        1.87852        0.02662
C          2.62787        1.74049        0.36201
C          1.92836        0.60971        0.02850
C          2.51920       -0.38985       -0.69912
C          3.84896       -0.31284       -1.07717
O          6.02985        0.76186       -0.71320
C          4.65902        3.21149        0.35454
H          2.11496        2.52056        0.89884
H          1.92329       -1.24157       -0.97931
C          4.39187       -1.40725       -2.01150
C          0.02464       -4.72398        3.29029
C         -1.57495       -2.95328        4.03561
C         -2.44277       -4.92327        2.80617
C         -2.09409       -2.50839       -3.15742
C         -0.35204       -4.29173       -2.92783
C         -2.71212       -4.67242       -2.11884
C         -0.38377       -6.06729        0.09846
H          0.87022       -4.04326        3.38641
H         -0.10304       -5.24071        4.24118
H          0.28059       -5.46545        2.53769
H         -1.84283       -3.47867        4.95204
H         -0.72218       -2.31791        4.27017
H         -2.41466       -2.31626        3.76074
H         -3.34090       -4.39270        2.49153
H         -2.25271       -5.71464        2.08515
H         -2.64628       -5.39491        3.76721
H         -2.87626       -1.94019       -2.65458
H         -1.29994       -1.81929       -3.44055
H         -2.51231       -2.90903       -4.08038
H         -0.61392       -4.68756       -3.90870
H          0.44462       -3.56055       -3.06129
H          0.04618       -5.10847       -2.33062
H         -2.39846       -5.54609       -1.55336
H         -3.56555       -4.23135       -1.60489
H         -3.04588       -5.01573       -3.09771
H         -0.33459       -6.78909        0.91364
H         -0.45674       -6.61870       -0.83865
H          0.52236       -5.46010        0.09404
C          6.64757        0.13585        0.39876
C          5.99131        3.37783       -0.39718
C          3.75012        4.38405       -0.07594
C          4.90963        3.29722        1.86898
C          5.74767       -1.02904       -2.63225
C          4.53357       -2.72408       -1.23053
C          3.40162       -1.61382       -3.17940
H          6.41771        4.36629       -0.22784
H          6.72315        2.64346       -0.06890
H          5.84614        3.24855       -1.46913
H          2.82706        4.41430        0.50039
H          4.25376        5.33945        0.06909
H          3.48730        4.29909       -1.13000
H          5.37906        4.24450        2.13306
H          3.97480        3.21950        2.42337
H          5.56272        2.49406        2.20510
H          6.52373       -0.96250       -1.87343
H          6.06533       -1.77072       -3.36474
H          5.68508       -0.06260       -3.13122
H          4.89691       -3.52272       -1.87676
H          5.23349       -2.61659       -0.40381
H          3.57542       -3.03743       -0.81686
H          2.44114       -1.99118       -2.83349
H          3.79288       -2.33168       -3.89976
H          3.22321       -0.67446       -3.70189
H          6.41418        0.68174        1.31151
H          6.28762       -0.88699        0.49936
H          7.72771        0.12566        0.25140
