171
-217.84426277
P         -1.61896        0.40048       -0.40901
P          1.57517       -0.40493       -0.38404
C         -0.91458        1.34421       -1.76305
C          0.88896       -1.35595       -1.74193
C         -0.09931        0.73315       -2.70884
C          0.52945        1.53686       -3.67990
C          0.27845        2.89863       -3.69797
C         -0.56563        3.47873       -2.77505
C         -1.15044        2.69692       -1.79817
C          1.12514       -2.70858       -1.77443
C          0.56501       -3.48761       -2.76773
C         -0.25145       -2.90423       -3.71316
C         -0.50260       -1.54214       -3.69674
C          0.09838       -0.74239       -2.70626
Cl         1.56772        0.36577        2.80943
Cl        -1.63998       -0.40393        2.77534
C         -1.37737       -0.94042       -4.73988
C          1.46382        0.95686       -4.68390
H         -0.75958        4.53838       -2.80801
H         -1.79259        3.14442       -1.05654
H          1.75211       -3.15747       -1.02100
H          0.76077       -4.54699       -2.79942
H          0.75653        3.50693       -4.44725
H         -0.70207       -3.50983       -4.48130
C         -3.95812       -3.31524       -1.49767
C         -2.91222       -3.41661       -0.58776
C         -2.18401       -2.26835       -0.30838
C         -2.50372       -1.07466       -0.90597
C         -3.54114       -0.98964       -1.80146
C         -4.29932       -2.11316       -2.10852
H         -4.52784       -4.19424       -1.72881
H         -1.36507       -2.30119        0.38940
H         -3.76973       -0.03645       -2.24856
C         -4.21971        2.93054        2.32112
C         -4.81794        1.93122        1.56182
C         -4.01007        1.19207        0.70824
C         -2.66449        1.44662        0.62022
C         -2.09152        2.44142        1.37344
C         -2.85735        3.19810        2.24989
H         -4.82697        3.50618        2.99257
H         -4.43173        0.39682        0.11911
H         -1.03019        2.60990        1.30070
C          4.30411       -2.90800        2.24325
C          2.94678       -3.20905        2.20837
C          2.13410       -2.45516        1.37247
C          2.65913       -1.43389        0.62044
C          3.99914       -1.14463        0.67474
C          4.85294       -1.88035        1.48426
H          4.94664       -3.47946        2.88484
H          1.07555       -2.64900        1.32878
H          4.38202       -0.32341        0.09475
C          3.91038        3.27901       -1.56519
C          2.89671        3.40377       -0.62233
C          2.16272        2.26808       -0.30815
C          2.45003        1.06595       -0.90468
C          3.45571        0.95701       -1.83280
C          4.21065        2.07041       -2.18249
H          4.49873        4.14050       -1.81847
H          1.36790        2.31517        0.41606
H          3.65366       -0.00837       -2.26716
Pd        -0.02643       -0.02270        1.26382
C         -1.20379       -5.23728       -0.47324
C         -2.53776       -4.73646        0.10242
C         -3.61111       -5.81975       -0.11897
C         -2.39330       -4.50633        1.62051
H         -0.41761       -4.49803       -0.32787
H         -0.89139       -6.16441        0.00693
H         -1.29356       -5.42347       -1.54315
H         -3.35699       -6.73142        0.42171
H         -4.58476       -5.48278        0.23652
H         -3.69822       -6.08015       -1.17350
H         -1.58792       -3.80933        1.84645
H         -3.31416       -4.09900        2.03712
H         -2.17286       -5.44032        2.13707
C         -4.99539       -1.57916       -4.46060
C         -5.49583       -1.98458       -3.06391
C         -6.45902       -0.90814       -2.52878
C         -6.27297       -3.30955       -3.18897
H         -4.32218       -2.33648       -4.86092
H         -5.82728       -1.46820       -5.15594
H         -4.45975       -0.63120       -4.42737
H         -6.79025       -1.15480       -1.52017
H         -5.98001        0.06942       -2.49720
H         -7.34148       -0.82364       -3.16274
H         -6.64984       -3.63573       -2.21970
H         -7.12889       -3.19403       -3.85387
H         -5.64279       -4.09798       -3.60002
C         -6.96793        1.92602        0.27995
C         -6.31802        1.61297        1.63919
C         -7.02438        2.44600        2.72603
C         -6.50655        0.12029        1.97349
H         -6.51364        1.33823       -0.51603
H         -8.03462        1.70303        0.29520
H         -6.84535        2.97914        0.02764
H         -8.08241        2.19016        2.78219
H         -6.58686        2.26084        3.70690
H         -6.95602        3.51225        2.51136
H         -7.56344       -0.12715        2.07090
H         -6.08756       -0.51897        1.19744
H         -6.01303       -0.12793        2.91287
C         -1.10412        3.54375        4.00330
C         -2.16548        4.24561        3.13365
C         -3.16432        4.96099        4.06294
C         -1.48829        5.29912        2.23978
H         -0.60243        4.25507        4.65888
H         -1.56357        2.77528        4.62443
H         -0.34338        3.06160        3.39077
H         -3.92866        5.48450        3.48893
H         -3.65544        4.25289        4.73011
H         -2.65484        5.69853        4.68300
H         -0.99806        6.06539        2.84004
H         -0.73379        4.84313        1.60214
H         -2.21962        5.78807        1.59653
C          1.26680       -3.64329        4.01288
C          2.31001       -4.29626        3.08550
C          3.35749       -5.01609        3.95589
C          1.62189       -5.33857        2.18616
H          0.80395       -4.38423        4.66423
H          1.73249       -2.88353        4.64005
H          0.47477       -3.16030        3.44195
H          4.11250       -5.50294        3.33887
H          3.85600       -4.31765        4.62774
H          2.88753       -5.78452        4.56961
H          2.33784       -5.78899        1.49897
H          1.17534       -6.13510        2.78108
H          0.83056       -4.88306        1.59412
C          6.93657       -1.63966        0.11044
C          6.34230       -1.51034        1.52551
C          7.13355       -2.42941        2.47536
C          6.48694       -0.05703        2.01563
H          6.43912       -0.97043       -0.59041
H          7.99832       -1.39378        0.10879
H          6.82443       -2.65742       -0.26273
H          7.06693       -3.47042        2.15968
H          8.18846       -2.15553        2.48829
H          6.76088       -2.35224        3.49658
H          5.98912        0.64001        1.34233
H          6.04391        0.06084        3.00429
H          7.53596        0.23176        2.07780
C          2.43978        4.52872        1.58233
C          2.55935        4.73754        0.05914
C          1.22425        5.25463       -0.49972
C          3.64796        5.79810       -0.19546
H          2.24430        5.47258        2.09095
H          1.62792        3.84782        1.83224
H          3.36173        4.11172        1.98683
H          0.43031        4.52607       -0.34251
H          0.93089        6.18743       -0.01852
H          1.30194        5.43621       -1.57138
H          3.42193        6.72000        0.34032
H          4.62217        5.44633        0.14382
H          3.71861        6.04575       -1.25428
C          5.23662        3.03641       -4.26784
C          5.39441        1.98150       -3.15618
C          5.48548        0.59084       -3.81499
C          6.69767        2.24054       -2.37849
H          5.24202        4.04730       -3.86259
H          6.05088        2.96579       -4.98885
H          4.29940        2.89676       -4.80506
H          5.65797       -0.18675       -3.07130
H          4.57130        0.35242       -4.35769
H          6.31143        0.55289       -4.52512
H          6.69625        3.23244       -1.92768
H          6.82024        1.51087       -1.57824
H          7.56497        2.17158       -3.03484
H         -1.91185       -0.07180       -4.35245
H          1.73582       -0.06939       -4.43382
H         -2.11909       -1.65860       -5.09025
H         -0.79265       -0.62059       -5.60304
H          2.38525        1.53763       -4.73205
H          1.01729        0.95660       -5.67917
