75
-122.80756350
P          1.92129       -0.42064       -0.12317
C          3.34348       -1.01573       -1.06672
C          3.85643       -2.26642       -0.80327
C          4.95743       -2.72651       -1.50187
C          5.54402       -1.92896       -2.46354
C          5.03134       -0.67472       -2.72584
C          3.93056       -0.21969       -2.02358
H          3.51180        0.75207       -2.23230
H          5.48375       -0.05200       -3.48004
H          6.40098       -2.28623       -3.01097
H          5.35652       -3.70586       -1.29467
H          3.39842       -2.87978       -0.04555
C          1.62470       -1.57792        1.21325
C          2.05254       -1.28086        2.48647
C          1.90799       -2.21729        3.49393
C          1.34358       -3.44633        3.21445
C          0.91847       -3.73989        1.93382
C          1.06007       -2.80036        0.92865
H          0.74171       -3.01704       -0.07919
H          0.47324       -4.69702        1.71754
H          1.22779       -4.17571        3.99940
H          2.23581       -1.98734        4.49430
H          2.50106       -0.32052        2.68406
C          2.29090        1.23084        0.50412
C          3.50974        1.85215        0.35194
C          3.68617        3.17167        0.74435
C          2.59363        3.86812        1.25870
C          1.37027        3.25776        1.42523
C          1.22562        1.90377        1.08286
O          0.02771        1.21187        1.29893
C         -1.16365        1.88855        1.00357
C         -1.32593        3.26043        1.25031
C         -2.50204        3.87363        0.87851
C         -3.52853        3.15954        0.26022
C         -3.36251        1.79811        0.04748
C         -2.19880        1.17047        0.42551
P         -1.79261       -0.56690        0.16838
C         -1.74787       -1.40254        1.76993
C         -1.27035       -0.76403        2.89146
C         -1.30321       -1.39718        4.11924
C         -1.81290       -2.67597        4.21864
C         -2.28617       -3.31997        3.09304
C         -2.25433       -2.67934        1.86755
H         -2.62938       -3.17017        0.98408
H         -2.68134       -4.31967        3.16811
H         -1.83560       -3.17402        5.17416
H         -0.92386       -0.89566        4.99433
H         -0.85568        0.22417        2.79912
C         -3.06467       -1.40517       -0.79537
C         -4.37337       -1.32989       -0.37546
C         -5.36215       -1.99347       -1.07898
C         -5.03110       -2.73780       -2.19351
C         -3.71478       -2.82655       -2.60007
C         -2.72861       -2.16301       -1.89376
H         -1.69731       -2.23190       -2.19964
H         -3.45491       -3.41079       -3.46749
H         -5.80054       -3.25377       -2.74432
H         -6.38790       -1.93238       -0.75436
H         -4.61406       -0.77010        0.51461
Pd        -0.06455       -0.10347       -1.41508
Cl        -1.75604        0.65987       -2.69898
Cl         1.32577        0.00278       -3.17259
H         -4.13816        1.23659       -0.44091
C         -4.79349        3.83521       -0.13381
H         -5.54140        3.74795        0.65526
H         -5.20702        3.39318       -1.04127
H         -4.62983        4.89600       -0.32777
H         -2.62504        4.92528        1.06837
S         -0.02240        4.15920        2.05228
H          2.70212        4.90373        1.52909
C          4.99584        3.84946        0.55233
H          4.33310        1.31336       -0.08207
H          5.82143        3.14269        0.64591
H          5.05363        4.30588       -0.43659
H          5.14557        4.63397        1.29520
