111
-148.55755022
P         -1.65608        2.76543        0.61277
P         -0.57544       -0.20949        0.43889
C         -1.60201        1.73196        2.10392
C         -1.20381        0.41455        2.01177
C         -0.46515        4.17416        0.73548
C          0.66326        4.01230       -0.26106
C         -1.93306        2.26598        3.33275
H         -2.20711        3.30593        3.40395
C         -1.88824        1.47039        4.46459
H         -2.15020        1.88605        5.42389
C         -1.50296        0.14701        4.36733
H         -1.46316       -0.47079        5.24933
C         -1.14976       -0.37973        3.13805
H         -0.81445       -1.40090        3.05033
Pd        -1.41536        1.26962       -1.12659
Cl        -2.06519        2.91580       -2.50622
Cl        -1.12037       -0.26337       -2.74089
C         -1.35256        5.41116        0.49200
C         -3.24492        3.69540        0.41138
H          1.23089        3.09807       -0.07693
H          0.27275        3.95375       -1.27902
H          1.35821        4.85419       -0.21885
H         -1.25810        5.70877       -0.56136
H         -0.98236        6.26878        1.07383
H         -3.47577        3.65854       -0.66147
C         -2.84825        5.12756        0.81240
C         -4.38114        3.09529        1.21207
H         -0.08707        4.16546        1.76604
H         -3.02651        5.25789        1.88863
H         -3.50282        5.85923        0.31447
H         -4.54899        2.05105        0.93868
H         -4.16776        3.12299        2.28090
H         -5.31323        3.64170        1.05115
C         -0.78883       -4.72283       -0.09880
C          0.21925       -4.15249        0.72014
C          0.25750       -2.77358        0.84782
C         -0.69943       -1.98350        0.26612
C         -1.73845       -2.53659       -0.43445
C         -1.83182       -3.90768       -0.60863
O         -0.73167       -6.10044       -0.43994
C          1.28446       -4.99763        1.43630
H          1.05163       -2.29171        1.39252
H         -2.46573       -1.87404       -0.87107
C         -3.02652       -4.48051       -1.38694
C          3.71736        1.24201       -0.02618
C          3.06285        1.36532        1.22615
C          1.77599        0.86949        1.34599
C          1.12554        0.32846        0.26847
C          1.71503        0.30075       -0.96746
C          2.99557        0.78848       -1.15984
O          5.09942        1.54999       -0.13679
C          3.73154        2.01911        2.44511
H          1.25754        0.90764        2.28760
H          1.13504       -0.07660       -1.79164
C          3.57022        0.83040       -2.58427
C          0.72700       -6.37751        1.83044
C          2.50563       -5.16080        0.51855
C          1.73900       -4.30752        2.74287
C         -4.27751       -3.59248       -1.19836
C         -2.67992       -4.52484       -2.88306
C         -3.39693       -5.88746       -0.88374
C          0.01464       -6.37420       -1.61932
H          0.45718       -6.96205        0.95456
H          1.46211       -6.95058        2.39497
H         -0.16475       -6.26902        2.44689
H          3.28527       -5.74540        1.00626
H          2.23870       -5.66370       -0.40776
H          2.92474       -4.18889        0.25873
H          2.29341       -3.39148        2.54429
H          0.88207       -4.06155        3.36952
H          2.39646       -4.96045        3.31651
H         -4.15914       -2.62189       -1.67764
H         -5.15535       -4.06202       -1.64166
H         -4.48256       -3.43130       -0.14035
H         -2.44400       -3.52707       -3.25250
H         -1.81606       -5.15829       -3.06922
H         -3.51446       -4.91291       -3.46637
H         -3.60099       -5.87067        0.18632
H         -4.28370       -6.26471       -1.39247
H         -2.59190       -6.59674       -1.05817
H          0.41116       -5.44995       -2.04154
H          0.83743       -7.04890       -1.38356
H         -0.62618       -6.86317       -2.35285
C          5.95915        0.43660        0.07003
C          4.66813        3.16137        2.01164
C          2.67237        2.63752        3.38622
C          4.51794        0.95508        3.22509
C          2.43987        1.03398       -3.61994
C          4.54771        2.00755       -2.75373
C          4.28024       -0.49784       -2.88523
H          5.49245        2.79003        1.40759
H          4.12572        3.89860        1.42050
H          5.09535        3.66771        2.87682
H          3.14916        3.20746        4.18332
H          2.01563        3.31346        2.83972
H          2.05989        1.87343        3.86274
H          4.99270        1.38754        4.10545
H          3.85748        0.15392        3.55624
H          5.29537        0.50981        2.60906
H          1.78822        0.16400       -3.68379
H          1.82992        1.89989       -3.36353
H          2.85161        1.19782       -4.61540
H          5.41724        1.89749       -2.11067
H          4.90431        2.07624       -3.78113
H          4.06147        2.94889       -2.49962
H          5.09733       -0.67443       -2.18971
H          4.69009       -0.50157       -3.89489
H          3.58581       -1.33334       -2.79934
H          6.64771        0.65503        0.88617
H          5.37757       -0.45376        0.31252
H          6.54558        0.25391       -0.83017
