58
-89.86391845
P          1.79324       -0.16626        0.72025
C          1.89009        1.62859        0.81033
C          2.97670        2.20905        1.42440
C          3.05516        3.58685        1.52706
C          2.03957        4.37425        1.02120
C          0.94641        3.78757        0.41612
C          0.87478        2.41188        0.31326
H          0.01592        1.94889       -0.13644
H          3.75877        1.58159        1.82237
C          3.33624       -0.84359        0.09355
C          4.18629       -0.04072       -0.63277
C          5.35773       -0.56461       -1.14916
C          5.66604       -1.89424       -0.94145
C          4.80382       -2.70065       -0.22540
C          3.63281       -2.17342        0.28947
H          2.93907       -2.80203        0.82427
H          3.92525        0.99130       -0.80339
C          1.46275       -0.78080        2.42844
C         -0.01333       -0.94929        2.75793
C         -0.87058        0.26606        2.41008
P         -1.58878        0.10447        0.72068
C         -2.89703       -1.12467        0.80146
C         -4.18260       -0.70238        1.05433
C         -5.20893       -1.62692        1.13175
C         -4.93870       -2.96962        0.95632
C         -3.64737       -3.38898        0.70436
C         -2.62331       -2.46238        0.62856
H         -1.61405       -2.77833        0.41940
H         -4.37770        0.35015        1.18588
C         -2.26734        1.66166        0.13090
C         -2.51543        1.79946       -1.21505
C         -3.01401        2.99050       -1.70807
C         -3.26414        4.03803       -0.84402
C         -3.02217        3.89424        0.50811
C         -2.52362        2.70038        0.99756
H         -2.32883        2.57879        2.05064
H         -2.31858        0.96645       -1.87017
Pd         0.05274       -0.65412       -0.74138
Cl         1.57021       -1.54275       -2.14084
Cl        -1.64132       -1.19610       -2.12407
H         -1.72088        0.37279        3.08830
H         -0.29101        1.18845        2.47250
H         -0.41221       -1.82508        2.22752
H         -0.11875       -1.19410        3.82668
H          2.00743       -1.71700        2.56658
H          1.92455       -0.05250        3.09865
H          3.90673        4.04366        2.00394
H          0.14577        4.39766        0.03136
H          6.02426        0.06300       -1.71758
H          5.03753       -3.74179       -0.07465
H         -6.21667       -1.29861        1.32647
H         -3.43711       -4.43634        0.56251
H         -3.20651        3.09926       -2.76272
H         -3.21959        4.71166        1.18204
H          2.09835        5.44739        1.10264
H          6.57659       -2.30528       -1.34604
H         -5.73732       -3.69120        1.01362
H         -3.65170        4.96875       -1.22517
