111
-148.55387335
P         -1.67751        2.81261        0.03690
P         -0.52176       -0.09180        0.51220
C         -1.64554        2.11109        1.71361
C         -1.20768        0.81788        1.90696
C         -0.46661        4.20575       -0.08263
C          0.62934        3.87667       -1.07428
C         -2.02136        2.87552        2.79998
H         -2.32123        3.89977        2.65159
C         -1.98496        2.33179        4.07249
H         -2.28287        2.92781        4.91964
C         -1.56087        1.03008        4.25949
H         -1.52702        0.60922        5.25090
C         -1.15996        0.27354        3.17307
H         -0.79153       -0.73188        3.30338
Pd        -1.33332        0.99143       -1.35571
Cl        -2.58158        2.02985       -2.90010
Cl        -0.85784       -0.84101       -2.56685
C         -1.34059        5.41181       -0.48292
C         -3.24851        3.72096       -0.33594
H          0.20816        3.68055       -2.06246
H          1.34013        4.70055       -1.17280
H          1.18517        2.98561       -0.77495
H         -1.24195        5.57251       -1.56520
H         -0.96049        6.33216       -0.01458
H         -3.45463        3.54105       -1.39868
C         -2.84002        5.19086       -0.13258
C         -4.41490        3.25067        0.50674
H         -0.05913        4.33962        0.92799
H         -3.02174        5.47053        0.91408
H         -3.48536        5.85309       -0.72994
H         -4.59171        2.18095        0.37364
H         -4.23105        3.42169        1.56755
H         -5.33358        3.78069        0.24539
C         -0.82492       -4.62684        0.67911
C          0.26655       -3.96718        1.30023
C          0.32372       -2.58517        1.22747
C         -0.68420       -1.86644        0.63966
C         -1.79527       -2.49122        0.13827
C         -1.91345       -3.87109        0.17268
O         -0.80809       -6.03874        0.52587
C          1.40429       -4.72267        2.00444
H          1.17409       -2.04751        1.61107
H         -2.56069       -1.88235       -0.31151
C         -3.18598       -4.52420       -0.38852
C          3.77416        1.25914       -0.15328
C          3.19444        0.29175       -1.01361
C          1.88376       -0.08796       -0.78207
C          1.19071        0.38650        0.29885
C          1.77822        1.24409        1.19097
C          3.08266        1.67317        1.01419
O          5.02565        1.84457       -0.48243
C          3.93886       -0.31388       -2.21280
H          1.36303       -0.72960       -1.47160
H          1.19305        1.59362        2.02294
C          3.70943        2.60757        2.06051
C          1.99142       -3.87239        3.15428
C          0.89830       -6.03410        2.63215
C          2.52181       -5.01479        0.99133
C         -4.40649       -3.59556       -0.19607
C         -3.00011       -4.78218       -1.89167
C         -3.50585       -5.84071        0.34246
C         -0.19210       -6.48177       -0.67716
H          2.70853       -4.45115        3.73601
H          2.51788       -2.99548        2.78048
H          1.20435       -3.53837        3.82987
H          1.69184       -6.53524        3.18591
H          0.07635       -5.83793        3.31982
H          0.54001       -6.72558        1.87386
H          2.15925       -5.62788        0.16971
H          2.90861       -4.08839        0.56724
H          3.35030       -5.54119        1.46454
H         -4.33565       -2.70259       -0.81521
H         -5.32811       -4.10533       -0.47599
H         -4.49792       -3.28629        0.84479
H         -2.16559       -5.45423       -2.07624
H         -3.89451       -5.22865       -2.32530
H         -2.79706       -3.85048       -2.41931
H         -3.59577       -5.67183        1.41500
H         -4.44260       -6.26887       -0.01343
H         -2.72600       -6.58169        0.18620
H          0.14556       -5.62902       -1.26761
H          0.65922       -7.11954       -0.43999
H         -0.90413       -7.06742       -1.25844
C          4.92548        3.00542       -1.29828
C          5.45143       -0.40443       -1.94237
C          3.44422       -1.75323       -2.48613
C          3.67069        0.54247       -3.45972
C          3.10563        2.34413        3.45898
C          5.22643        2.37213        2.17446
C          3.42686        4.06746        1.67451
H          5.89206        0.58088       -1.81394
H          5.64513       -0.97715       -1.03601
H          5.96872       -0.89145       -2.76863
H          4.05506       -2.23389       -3.24989
H          3.49906       -2.35977       -1.58253
H          2.41625       -1.76612       -2.84498
H          4.17493        0.12963       -4.33299
H          2.60311        0.58490       -3.67480
H          4.02022        1.56270       -3.32036
H          3.17515        1.28807        3.71858
H          3.63654        2.91217        4.22257
H          2.05934        2.64221        3.50963
H          5.66077        2.98835        2.96128
H          5.43632        1.32842        2.40598
H          5.73670        2.61673        1.24618
H          3.84151        4.30535        0.69803
H          3.86054        4.75424        2.40090
H          2.35429        4.25416        1.63355
H          5.45540        2.84120       -2.23633
H          3.88011        3.23544       -1.50747
H          5.38900        3.85053       -0.78957
