59
-75.81193180
Cl         1.69432        0.49092        2.24264
P          1.60110       -0.03040       -0.84469
P         -1.64096       -0.04965       -0.79985
C          0.58183        0.41198       -2.31807
H          0.32111        1.47191       -2.26596
H          1.18642        0.26359       -3.21828
C         -0.65280       -0.44300       -2.30917
H         -0.38818       -1.50324       -2.28497
H         -1.28206       -0.27874       -3.18975
C          2.49548       -1.61019       -1.24666
H          2.30395       -1.75828       -2.31819
C          3.06615        1.08539       -0.61683
H          3.19317        1.19801        0.46661
C         -2.95870       -1.31402       -0.49210
H         -3.32197       -1.12831        0.52639
C         -2.77351        1.36327       -1.21611
H         -2.30477        1.90795       -2.04478
C          3.97968       -1.25911       -1.04339
H          4.29694       -1.57394       -0.04203
H          4.60757       -1.83333       -1.74137
C          4.22863        0.26400       -1.20012
H          4.33722        0.51152       -2.26513
H          5.17938        0.55864       -0.73011
C         -4.02282       -0.88703       -1.51609
H         -3.77621       -1.34946       -2.48301
H         -5.00804       -1.29420       -1.23973
C         -4.07881        0.66133       -1.67168
H         -4.91283        1.05307       -1.07309
H         -4.31985        0.93453       -2.70968
C          1.99903       -2.82659       -0.46681
H          2.50151       -3.72514       -0.85115
H          0.93616       -2.97567       -0.69694
C          2.89169        2.45596       -1.26017
H          3.85855        2.97835       -1.25778
H          2.63996        2.32240       -2.32017
C         -2.49196       -2.76027       -0.61756
H         -3.37145       -3.41449       -0.69492
H         -1.95899       -2.88556       -1.56798
C         -2.99707        2.29855       -0.02943
H         -3.85929        2.94490       -0.24621
H         -3.29757        1.69691        0.83867
C          2.19392       -2.74613        1.04079
H          3.24910       -2.75542        1.31679
H          1.72328       -3.58580        1.55765
H          1.76668       -1.83247        1.45178
C          1.84229        3.30661       -0.56467
H          0.87019        2.81528       -0.57629
H          1.72304        4.28381       -1.03806
H          2.10110        3.47581        0.48230
C         -1.62378       -3.20167        0.55003
H         -0.75407       -2.55509        0.66268
H         -1.26271       -4.22588        0.43230
H         -2.17449       -3.15280        1.49132
C         -1.79486        3.16133        0.31724
H         -2.01380        3.85979        1.12817
H         -0.94945        2.55539        0.63945
H         -1.46850        3.74890       -0.54292
Cl        -1.60083        0.04742        2.40911
Pd        -0.01001        0.10492        0.83386
