105
-153.06742887
Cl         0.32957        2.88989        2.63098
Pd        -0.21386        1.68492        0.80344
P         -0.80441        0.52445       -1.17350
N          0.30430       -0.75924       -1.64786
C          0.52741       -2.11761       -1.38791
C          0.05525       -2.81257       -0.24381
C          0.51663       -4.12035        0.01661
C          0.18518       -4.77669        1.33568
C          1.21414       -5.83969        1.74458
C          1.39967       -6.85256        0.61044
C          1.88551       -6.16448       -0.67781
C          1.35142       -4.76743       -0.89769
C          1.75866       -4.08691       -2.03789
C          1.37412       -2.79166       -2.26695
H          1.73245       -2.26726       -3.13600
H          2.41327       -4.58354       -2.73419
H          2.98101       -6.11226       -0.67074
H          2.09137       -7.65157        0.91222
H          2.17362       -5.35219        1.95816
H          0.10133       -4.00898        2.11497
C         -0.73888       -2.11287        0.79343
C         -0.05037       -1.23116        1.66100
C         -0.76082       -0.59601        2.67905
C         -2.09886       -0.84104        2.85169
C         -2.78036       -1.73606        2.03345
C         -4.23549       -2.00574        2.30663
C         -4.67286       -3.39141        1.81205
C         -4.30206       -3.56726        0.33639
C         -2.79119       -3.38485        0.09742
C         -2.10350       -2.37983        0.99513
H         -2.29580       -4.35305        0.21490
H         -4.85721       -2.83252       -0.25602
H         -5.74995       -3.54489        1.96965
H         -4.83558       -1.22897        1.81864
H         -2.63700       -0.33970        3.63808
H         -0.24263        0.09705        3.31795
N          1.31920       -1.00583        1.47373
P          1.85806        0.64369        1.15509
C          2.62940        0.79499       -0.45455
C          3.41904       -0.22045       -0.94152
C          3.87214       -0.16868       -2.24762
C          3.54500        0.90279       -3.06739
C          2.76887        1.92872       -2.54794
C          2.31649        1.87756       -1.24316
H          1.69688        2.66773       -0.84964
H          2.50037        2.75856       -3.17933
C          3.97752        0.93069       -4.49178
H          4.46933       -0.97217       -2.64390
H          3.65079       -1.06553       -0.31324
C          2.86821        1.32888        2.45761
C          2.87545        0.70466        3.68106
C          3.62552        1.23348        4.71649
C          4.37312        2.38843        4.52660
C          4.34149        3.00921        3.28445
C          3.59085        2.47890        2.25056
H          3.55823        2.96015        1.28596
H          4.90373        3.91487        3.13362
C          5.15648        2.97695        5.64798
H          3.63024        0.75394        5.68034
H          2.29191       -0.19200        3.81753
H          1.77571       -1.58711        0.78459
H          1.10715       -0.24019       -1.98555
C         -0.66005        1.73832       -2.49477
C         -0.25290        1.29145       -3.73040
C         -0.09449        2.18652       -4.77338
C         -0.35347        3.53742       -4.58815
C         -0.77054        3.96992       -3.33690
C         -0.92923        3.07170       -2.29961
H         -1.27294        3.40458       -1.33603
H         -0.97041        5.01618       -3.18019
C         -0.14861        4.50838       -5.69834
H          0.23920        1.84041       -5.73668
H         -0.04804        0.24262       -3.87322
C         -2.48505       -0.08288       -1.29052
C         -2.73895       -0.98789       -2.29435
C         -4.03532       -1.41079       -2.53325
C         -5.08644       -0.92729       -1.76582
C         -4.81208       -0.00558       -0.76493
C         -3.51740        0.41816       -0.53447
H         -3.31348        1.17481        0.20248
H         -5.62300        0.39335       -0.17976
C         -6.48637       -1.35787       -2.03495
H         -4.23722       -2.11604       -3.32113
H         -1.91847       -1.35207       -2.89299
Cl        -2.09146        2.90256        0.59578
H          1.63038       -6.77602       -1.55257
H          0.91939       -6.33942        2.67821
H          0.44228       -7.35318        0.41780
H         -0.80310       -5.24305        1.27049
H         -4.63772       -4.54663       -0.03242
H         -2.60380       -3.10247       -0.94491
H         -4.43121       -1.90053        3.38134
H         -4.17175       -4.16486        2.40766
H          4.92021        0.39902       -4.62830
H          3.22930        0.46047       -5.13151
H          4.12107        1.95472       -4.83939
H          4.54812        3.68174        6.21634
H          5.50483        2.20338        6.33375
H          6.03328        3.51057        5.27851
H          0.87544        4.88434       -5.69949
H         -0.33807        4.04425       -6.66723
H         -0.82077        5.36236       -5.60378
H         -6.97704       -0.66956       -2.72442
H         -6.51471       -2.35467       -2.47753
H         -7.07225       -1.38760       -1.11503
