58
-89.86894324
P          1.70623        0.33978        0.74146
C          3.11907        1.31444        0.22175
C          4.28201        0.68885       -0.16534
C          5.36483        1.44480       -0.57691
C          5.27254        2.82258       -0.59901
C          4.10235        3.44541       -0.21150
C          3.02112        2.68668        0.20063
H          2.09689        3.15791        0.49641
H          4.33558       -0.38778       -0.14942
C          1.96059       -1.40704        0.39496
C          1.89159       -1.81582       -0.91776
C          2.04919       -3.15159       -1.23651
C          2.28190       -4.07137       -0.23374
C          2.36816       -3.65621        1.08057
C          2.21161       -2.31845        1.39522
H          2.29906       -1.98447        2.41586
H          1.71602       -1.07950       -1.68634
C          1.38326        0.68232        2.51573
C          0.21470       -0.09247        3.10294
C         -1.15321        0.41877        2.68000
P         -1.63195        0.02478        0.94925
C         -1.56639       -1.73556        0.58191
C         -1.47535       -2.68413        1.57489
C         -1.39415       -4.02325        1.23850
C         -1.41403       -4.40442       -0.08871
C         -1.52458       -3.45137       -1.08136
C         -1.60378       -2.11363       -0.74147
H         -1.69606       -1.35309       -1.50111
H         -1.48298       -2.38124        2.60879
C         -3.28178        0.67525        0.67435
C         -4.31350       -0.17544        0.34923
C         -5.58053        0.33329        0.12782
C         -5.80345        1.69217        0.23217
C         -4.76432        2.54214        0.55623
C         -3.49810        2.03013        0.77784
H         -2.67394        2.68274        1.01969
H         -4.12244       -1.23297        0.26497
Pd        -0.10369        0.77937       -0.62659
Cl         1.34220        1.30047       -2.26587
Cl        -1.89503        1.25750       -1.89898
H         -1.94438       -0.00407        3.30425
H         -1.21050        1.50265        2.79467
H          0.30786       -1.15138        2.83525
H          0.28297       -0.06635        4.20177
H          2.31641        0.44918        3.03461
H          1.22630        1.75740        2.61985
H          6.27644        0.95853       -0.88312
H          4.02855        4.52024       -0.23433
H          1.98610       -3.47225       -2.26329
H          2.55695       -4.37412        1.86177
H         -1.31473       -4.76862        2.01272
H         -1.54456       -3.74676       -2.11741
H         -6.39023       -0.32971       -0.12924
H         -4.93693        3.60316        0.63164
H          6.11425        3.41287       -0.92271
H          2.39978       -5.11459       -0.47755
H         -1.34612       -5.44784       -0.35006
H         -6.78946        2.09058        0.05673
