111
-148.56003067
P         -2.61134        2.18695        0.44467
P          0.01816        0.38822        0.45777
C         -1.69452        1.93107        1.98820
C         -0.54225        1.17432        1.98238
C         -3.34682        3.88134        0.34395
C         -2.58571        4.75101       -0.63279
C         -2.15180        2.47936        3.16949
H         -3.06590        3.05006        3.17406
C         -1.44350        2.27993        4.34190
H         -1.79930        2.70929        5.26425
C         -0.28358        1.52958        4.33167
H          0.26801        1.37387        5.24419
C          0.16546        0.97082        3.14862
H          1.06512        0.37607        3.12643
Pd        -1.17734        1.46689       -1.20250
Cl        -2.65247        2.16197       -2.74234
Cl         0.31011        0.70411       -2.70069
C         -4.80677        3.59360       -0.05499
C         -4.13863        1.15080        0.33208
H         -2.60021        4.31446       -1.63261
H         -3.02278        5.74985       -0.70298
H         -1.53915        4.85768       -0.33736
H         -4.88826        3.64232       -1.14969
H         -5.47183        4.38345        0.32626
H         -4.12514        0.69747       -0.66795
C         -5.26994        2.19118        0.43445
C         -4.15973        0.08674        1.40903
H         -3.30293        4.30647        1.35445
H         -5.59495        2.25826        1.48185
H         -6.15362        1.85159       -0.12702
H         -3.29800       -0.57992        1.32729
H         -4.12600        0.54081        2.40110
H         -5.06584       -0.52104        1.35322
C         -1.17801       -4.00962        0.37012
C         -0.30068       -3.53088        1.37626
C          0.04671       -2.18982        1.36006
C         -0.49838       -1.32815        0.44420
C         -1.43194       -1.76628       -0.45864
C         -1.82356       -3.09311       -0.49802
O         -1.37696       -5.40607        0.20426
C          0.29870       -4.44510        2.45628
H          0.76716       -1.80069        2.05856
H         -1.84239       -1.06147       -1.15852
C         -2.90144       -3.52169       -1.50594
C          4.49833        0.72833       -0.27896
C          3.79111       -0.42642       -0.69994
C          2.42786       -0.48054       -0.46420
C          1.78573        0.51812        0.21910
C          2.48078        1.59057        0.71348
C          3.84792        1.70435        0.51950
O          5.84368        0.92638       -0.68875
C          4.46316       -1.59389       -1.43885
H          1.83846       -1.30330       -0.83119
H          1.93499        2.34603        1.25161
C          4.59699        2.88862        1.15076
C          0.55183       -3.65320        3.75949
C         -0.66416       -5.59292        2.81085
C          1.63712       -5.01103        1.95819
C         -3.89941       -2.36924       -1.76328
C         -2.23006       -3.89376       -2.83652
C         -3.72017       -4.71081       -0.97179
C         -0.44871       -6.01982       -0.68143
H          0.85397       -4.32139        4.56563
H          1.34728       -2.91947        3.63829
H         -0.35067       -3.13167        4.07733
H         -0.26737       -6.20047        3.62382
H         -1.63147       -5.19982        3.12191
H         -0.82927       -6.24983        1.96062
H          2.08547       -5.66716        2.70378
H          1.50783       -5.58187        1.04170
H          2.34139       -4.20603        1.75082
H         -3.43176       -1.53763       -2.28812
H         -4.73042       -2.70846       -2.38115
H         -4.31127       -1.99738       -0.82586
H         -1.67260       -3.04675       -3.23590
H         -1.53260       -4.71822       -2.70908
H         -2.97094       -4.19063       -3.57834
H         -4.16303       -4.46847       -0.00630
H         -4.52498       -4.97242       -1.65830
H         -3.09944       -5.59371       -0.84159
H         -0.98541       -6.48836       -1.50621
H          0.24845       -5.27913       -1.07541
H          0.10539       -6.79467       -0.15191
C          5.97475        1.62773       -1.91896
C          5.92606       -1.76795       -0.99267
C          3.73794       -2.92397       -1.12894
C          4.39540       -1.33875       -2.95219
C          6.04409        2.50327        1.50843
C          4.59103        4.07382        0.17362
C          3.91177        3.32832        2.46490
H          6.38106       -2.63501       -1.47087
H          6.52599       -0.89866       -1.24962
H          5.98395       -1.90626        0.08646
H          4.28409       -3.76924       -1.54703
H          3.65644       -3.07745       -0.05347
H          2.73648       -2.94893       -1.55595
H          4.91248       -0.42055       -3.22042
H          4.85170       -2.15758       -3.50776
H          3.36046       -1.24259       -3.27977
H          6.62071        2.25796        0.62006
H          6.55376        3.32195        2.01586
H          6.05847        1.63493        2.16628
H          3.57019        4.37260       -0.06332
H          5.10463        4.93474        0.60080
H          5.08535        3.81726       -0.76023
H          3.78534        2.48102        3.13843
H          2.93345        3.77020        2.28211
H          4.50997        4.07925        2.98056
H          6.49552        1.00229       -2.64378
H          4.99228        1.89598       -2.30965
H          6.56393        2.53136       -1.76358
