100
-131.98241352
C         -1.54768        3.83858       -1.47139
C         -2.31100        2.58574       -1.50221
C         -0.16428        3.52184       -1.52973
C         -0.00956        2.04154       -1.58569
C          1.14943        1.42900       -2.29911
C         -1.40340        1.48080       -1.60774
C         -1.84219        0.08304       -2.00705
C         -0.91577       -0.63379       -2.96726
Cl         0.98766       -0.53820        2.77867
Cl        -1.89218       -1.72888        2.27880
C          3.24421        0.37188       -3.82907
C          2.50746        1.43330       -4.31623
C          2.95054       -0.15295       -2.57888
C          1.48634        1.95766       -3.56455
C          1.91454        0.34412       -1.82362
H         -3.39598        2.51680       -1.59158
H          0.65208        4.24306       -1.61332
H          0.01028       -0.91731       -2.46753
H         -1.36482       -1.54918       -3.35944
H         -0.65817        0.00025       -3.81900
H          4.05521       -0.03618       -4.40988
H          2.73653        1.85026       -5.28359
H          3.56722       -0.94607       -2.19017
H          0.90708        2.78090       -3.94592
H         -1.97378        4.84521       -1.47391
P          1.77161       -0.30427       -0.14188
H         -2.83188        0.17728       -2.47402
P         -2.15245       -0.95624       -0.51517
H         -3.49435       -2.96620       -0.43804
C         -1.67414       -3.67763       -1.31422
C         -2.73980       -2.59936       -1.13105
C         -1.26318       -4.27896        0.03244
H         -3.36118        0.92596        0.31808
C         -4.96430       -0.41852       -0.26106
C         -3.57471       -0.14178        0.34894
H         -4.80839       -0.76600       -1.29808
C         -5.71081       -1.51066        0.51331
H          3.60704       -1.84215       -0.38725
H          2.55185        0.77196        1.88368
C          3.54686        3.26364        1.21597
C          2.71285        2.29218        0.36132
C          2.87716        0.84349        0.84047
C          4.36203        0.44873        0.77485
C          5.23229        1.40793        1.61361
C          5.03568        2.87185        1.17504
H          3.18966        3.23264        2.25278
H          3.40190        4.30123        0.88392
H          3.04905        2.35444       -0.68108
H          1.65518        2.57488        0.33803
H          4.50716       -0.58647        1.10686
H          4.68744        0.47291       -0.27197
H          4.96173        1.30767        2.67216
H          6.29200        1.12258        1.55417
H          5.41687        2.99940        0.15401
H          5.63463        3.55029        1.79899
C          2.65028       -4.31229       -1.08159
C          1.90669       -2.96172       -1.05005
C          2.56861       -1.99047       -0.07004
C          2.59495       -2.60548        1.33714
C          3.36123       -3.94230        1.33569
C          2.73922       -4.93012        0.32885
H          3.66230       -4.15917       -1.47629
H          2.16366       -5.00576       -1.78175
H          0.87982       -3.12112       -0.71367
H          1.82705       -2.52028       -2.05245
H          3.01364       -1.90018        2.06658
H          1.56482       -2.78234        1.66712
H          4.40904       -3.75959        1.06697
H          3.38786       -4.37623        2.34504
H          1.73518       -5.20947        0.67018
H          3.30987       -5.86932        0.30477
H         -0.79912       -3.19697       -1.78238
C         -2.16467       -4.77820       -2.26002
H         -3.56744       -0.43135        1.39966
C         -5.81059        0.85787       -0.31400
H         -3.25440       -2.40654       -2.07435
H         -0.49005       -5.03862       -0.08796
H         -2.11646       -4.75908        0.51222
H         -0.89290       -3.52194        0.72283
H         -1.40194       -5.54380       -2.41117
H         -3.04808       -5.26965       -1.85117
H         -2.43456       -4.37663       -3.23814
H         -6.66001       -1.76071        0.03678
H         -5.13004       -2.42747        0.60347
H         -5.93354       -1.17314        1.52608
H         -5.95869        1.26097        0.68838
H         -5.33540        1.63448       -0.91369
H         -6.79639        0.66561       -0.74032
Fe        -1.03689        2.66025        0.09163
C         -2.45229        3.06263        1.53742
C         -1.58419        4.21312        1.36551
C         -0.21962        3.79314        1.62007
C         -0.25149        2.37983        1.94249
C         -1.62868        1.93303        1.91961
H         -3.54226        3.06723        1.46196
H         -1.90671        5.22853        1.12458
H          0.66333        4.43626        1.61018
H          0.58969        1.76964        2.27271
H         -1.96852        0.93510        2.20370
Pd        -0.28802       -0.84640        0.93527
