45
-71.81563491
C          2.33587        1.19989        2.43839
P          1.53190        0.85299        0.83856
P         -1.03714        0.19673       -0.89294
C         -0.43606       -0.28208       -2.54783
Cl         1.48008       -1.95288        2.22589
H          2.87047        0.31811        2.77982
H         -0.60335       -1.34285       -2.71147
Cl        -1.22445       -2.72565        0.30049
C          0.48133        2.20274        0.25921
C         -0.62142        1.91127       -0.51449
C         -1.41485        2.92715       -1.00593
C         -1.09796        4.24394       -0.72208
C          0.01128        4.53704        0.04753
C          0.80547        3.51482        0.53689
H         -2.27663        2.68238       -1.60610
H         -1.71603        5.04005       -1.10336
H          0.26081        5.56257        0.26490
H          1.68013        3.73293        1.12778
Pd         0.12823       -0.98828        0.71580
H          0.62814       -0.07949       -2.62650
H          1.58629        1.46603        3.17814
H         -0.96025        0.28493       -3.31179
C         -5.47038       -0.54936       -0.19640
C         -4.87979       -1.01427       -1.35489
C         -3.53422       -0.78829       -1.58275
C         -2.79110       -0.09732       -0.65299
C         -3.37390        0.36403        0.50552
C         -4.71970        0.13942        0.73560
H         -6.51820       -0.72759       -0.01769
H         -5.46487       -1.55661       -2.07938
H         -3.06118       -1.15479       -2.47915
H         -2.77192        0.89647        1.22548
H         -5.17882        0.49868        1.64189
C          4.45608       -0.35698       -2.42208
C          4.27619       -1.16836       -1.31880
C          3.39435       -0.78872       -0.32391
C          2.70783        0.39797       -0.43544
C          2.87488        1.20554       -1.53664
C          3.75529        0.82822       -2.53448
H          5.14182       -0.65170       -3.19959
H          4.81488       -2.09793       -1.23575
H          3.21012       -1.42192        0.52932
H          2.31395        2.12299       -1.61295
H          3.89193        1.45750       -3.39854
H          3.04039        2.01987        2.33293
