45
-71.81727454
C          0.42087        0.42176        2.53384
P          0.98048        0.55462        0.80175
P         -1.60570        0.41805       -0.99992
C         -2.37047        0.23275       -2.64509
Cl         1.54738       -2.52164        0.44673
H         -0.66465        0.42613        2.57222
H         -3.18185        0.94528       -2.76264
Cl        -0.94076       -2.64027       -1.79952
C          0.35500        2.05448        0.02090
C         -0.76347        1.99862       -0.78169
C         -1.25462        3.14758       -1.36686
C         -0.61120        4.35455       -1.15568
C          0.51500        4.40849       -0.35709
C          0.99942        3.25528        0.23494
H         -2.14013        3.09575       -1.97919
H         -0.99104        5.25327       -1.61311
H          1.01585        5.34839       -0.19307
H          1.87650        3.28084        0.86165
Pd        -0.02130       -1.15694       -0.39635
H         -2.76571       -0.77293       -2.75613
H          0.79655        1.26061        3.11267
H         -1.62794        0.40666       -3.41860
C         -4.48388       -0.35506        2.42784
C         -4.19403       -1.36115        1.52674
C         -3.32830       -1.11497        0.47671
C         -2.76780        0.13324        0.33353
C         -3.04358        1.13645        1.23360
C         -3.90866        0.89284        2.28499
H         -5.15730       -0.54567        3.24747
H         -4.63465       -2.33747        1.64429
H         -3.06027       -1.89403       -0.21966
H         -2.57889        2.10164        1.11270
H         -4.13109        1.67511        2.99198
C          5.48775        0.26811        0.25790
C          4.96435        0.36519        1.53213
C          3.59559        0.45452        1.71133
C          2.76195        0.44653        0.61611
C          3.27853        0.35189       -0.65601
C          4.64726        0.26127       -0.83759
H          6.55401        0.19561        0.11831
H          5.62070        0.36893        2.38685
H          3.17603        0.52799        2.70142
H          2.60795        0.34639       -1.50130
H          5.05478        0.18241       -1.83204
H          0.78383       -0.50482        2.96948
