111
-148.55309824
P         -1.96154        2.41404        1.31759
P         -0.01731        0.04630        0.51058
C         -1.04529        1.52866        2.60215
C         -0.23917        0.46893        2.25021
C         -1.57314        4.22046        1.34583
C         -0.78146        4.60791        0.11538
C         -1.15712        1.90143        3.92604
H         -1.77470        2.74449        4.19046
C         -0.47256        1.19463        4.89970
H         -0.56069        1.48267        5.93454
C          0.32038        0.11934        4.54687
H          0.85108       -0.43281        5.30494
C          0.43917       -0.24361        3.21710
H          1.06063       -1.07536        2.92361
Pd        -1.57674        1.29929       -0.66754
Cl        -3.28481        2.45768       -1.54331
Cl        -1.09906        0.05055       -2.47477
C         -2.96183        4.88066        1.44739
C         -3.78577        2.46819        1.63806
H          0.16233        4.05911        0.06089
H         -1.34476        4.38069       -0.79212
H         -0.55443        5.67666        0.10594
H         -3.29176        5.16237        0.43801
H         -2.89793        5.82410        2.01037
H         -4.26615        2.29328        0.66645
C         -4.01126        3.92449        2.08269
C         -4.22515        1.41925        2.63747
H         -0.99182        4.39696        2.26041
H         -3.94155        3.97630        3.17787
H         -5.03509        4.24527        1.83690
H         -5.30565        1.44724        2.79583
H         -3.95785        0.41550        2.29980
H         -3.74813        1.57588        3.60565
C         -1.02974       -4.32502       -0.24524
C         -1.94423       -3.48909        0.44546
C         -1.58121       -2.17303        0.68222
C         -0.39786       -1.67218        0.20604
C          0.44046       -2.44560       -0.55259
C          0.13479       -3.76679       -0.83201
O         -1.26564       -5.72355       -0.32309
C         -3.30518       -3.99437        0.94910
H         -2.22001       -1.51547        1.24718
H          1.34217       -1.99799       -0.93152
C          1.06414       -4.56871       -1.75678
C          4.16176        1.13906       -0.96521
C          3.86960        1.20209        0.42327
C          2.59824        0.84717        0.84262
C          1.61868        0.51761       -0.05810
C          1.86422        0.58551       -1.40426
C          3.10974        0.93246       -1.89593
O          5.50584        1.20231       -1.41447
C          4.88081        1.65254        1.49104
H          2.36171        0.82031        1.89154
H          1.05622        0.36300       -2.07830
C          3.26008        1.09671       -3.41786
C         -4.33169       -2.83973        1.00004
C         -3.88033       -5.06506        0.00417
C         -3.14345       -4.56815        2.36473
C          2.15810       -5.24662       -0.91852
C          0.27549       -5.62259       -2.55514
C          1.73948       -3.63614       -2.78843
C         -0.68708       -6.46992        0.73995
H         -4.37864       -2.31975        0.04349
H         -5.32874       -3.21766        1.22500
H         -4.08326       -2.11506        1.77382
H         -3.95609       -4.67864       -1.01167
H         -3.25001       -5.95057       -0.02207
H         -4.87416       -5.37730        0.32389
H         -2.76190       -3.80864        3.04680
H         -4.09758       -4.92294        2.75361
H         -2.44587       -5.40206        2.37468
H          2.74162       -4.50434       -0.37430
H          1.72966       -5.92998       -0.18929
H          2.83975       -5.81387       -1.55182
H         -0.16726       -6.36800       -1.89924
H         -0.53029       -5.15245       -3.11789
H          0.92172       -6.14554       -3.25966
H          2.45133       -2.96100       -2.31579
H          2.29086       -4.21318       -3.53042
H          0.99494       -3.03880       -3.31414
H         -0.17342       -5.80579        1.43621
H         -1.46747       -7.01769        1.26793
H          0.02169       -7.19273        0.33635
C          6.11932       -0.07380       -1.48858
C          5.35895        0.42928        2.29028
C          6.09439        2.37337        0.87876
C          4.20137        2.65154        2.45430
C          2.09306        1.95401       -3.95703
C          4.56363        1.81672       -3.80374
C          3.21851       -0.28613       -4.08842
H          5.86069       -0.28994        1.64575
H          6.05818        0.72413        3.07232
H          4.51943       -0.07827        2.76450
H          5.77201        3.20504        0.25325
H          6.75129        2.76555        1.65479
H          6.68218        1.69919        0.26020
H          3.40023        2.18462        3.02483
H          4.91943        3.04923        3.17103
H          3.77786        3.49018        1.90232
H          1.13234        1.45853       -3.82779
H          2.04952        2.91247       -3.44063
H          2.21508        2.15066       -5.02178
H          5.43506        1.22070       -3.54336
H          4.60410        2.00874       -4.87567
H          4.64401        2.77068       -3.28378
H          3.31549       -0.19754       -5.17011
H          2.27652       -0.79096       -3.87775
H          4.02562       -0.92220       -3.72962
H          7.13688        0.03760       -1.86366
H          6.14812       -0.53220       -0.50145
H          5.55650       -0.72098       -2.15956
