72
-98.09329098
Fe         0.06054        2.83309       -0.02398
P          1.93452       -0.07070       -0.00015
P         -1.75213       -0.10160       -0.13903
C          1.51371        1.61215        0.60253
C          0.60857        1.93551        1.69396
C          0.59549        3.37884        1.86163
C          1.50216        3.95158        0.88266
C          2.07474        2.86089        0.11073
C         -1.37254        1.60896       -0.69213
C         -1.95554        2.84472       -0.19127
C         -1.38877        3.95285       -0.94178
C         -0.45698        3.40487       -1.91060
C         -0.45445        1.95927       -1.76329
C          3.32823       -0.69787        1.04264
C          4.53376       -0.02755        0.36408
C          2.85879        0.03958       -1.60907
C          4.34687        0.05619       -1.17740
C         -2.91510       -0.87996       -1.35478
C         -4.27822       -0.77441       -0.65376
C         -2.85079       -0.08979        1.36026
C         -4.12545       -0.81276        0.88912
H          0.06281        1.21815        2.30564
H          0.02319        3.93287        2.60957
H          1.73184        5.01303        0.76285
H          2.81587        2.95574       -0.68592
H         -2.70712        2.92562        0.59656
H          0.13382        1.25820       -2.35483
Cl         1.67668       -3.11541        0.11451
Cl        -1.57038       -3.00956        0.34724
Pd         0.10201       -1.50593        0.10106
H          3.37607       -1.78435        0.90876
C          3.16508       -0.35783        2.51933
H          2.57066        0.98859       -2.07628
C          2.53856       -1.12847       -2.54277
H          5.46445       -0.55608        0.62348
H          4.64569        0.98484        0.77878
H          4.85362        0.94586       -1.57975
H          4.85526       -0.79810       -1.64522
H         -1.63198        5.00974       -0.80990
H          0.12434        3.97651       -2.63801
H          4.11012       -0.56333        3.04111
H          3.31589       -1.18740       -3.31760
H         -2.61723       -1.93008       -1.45576
C         -2.85345       -0.19150       -2.71357
H         -3.06535        0.96328        1.57374
C         -2.19802       -0.74103        2.57466
H         -4.95139       -1.57302       -1.00108
H         -4.75797        0.16806       -0.95189
H         -5.01309       -0.38790        1.38150
H         -4.07853       -1.85920        1.21997
H         -3.13405        0.86283       -2.58928
H         -1.20781       -0.30133        2.73752
C          2.02868       -1.11996        3.18238
H          1.07547       -0.90772        2.69841
H          2.18543       -2.19818        3.11591
H          1.92351       -0.86545        4.23938
C          1.17349       -1.04733       -3.20768
H          1.09269       -0.15994       -3.83806
H          0.97678       -1.91475       -3.84192
H          0.37124       -0.99954       -2.47226
C         -3.73816       -0.85496       -3.75802
H         -3.45780       -1.89979       -3.90425
H         -4.78685       -0.84259       -3.45593
H         -3.67080       -0.35727       -4.72812
C         -3.03531       -0.61627        3.83830
H         -4.01048       -1.09116        3.71697
H         -2.54950       -1.08128        4.69918
H         -3.21619        0.43078        4.08873
H          3.00993        0.72428        2.61925
H          2.63079       -2.06243       -1.97322
H         -1.81184       -0.17223       -3.06085
H         -2.00547       -1.79780        2.35133
