111
-148.55509577
P         -2.56065        2.06166        0.87743
P          0.13129        0.42139        0.52426
C         -1.47455        1.79177        2.30425
C         -0.28951        1.10757        2.13786
C         -3.36849        3.72601        0.91126
C         -2.78360        4.63431       -0.14829
C         -1.83433        2.25068        3.55510
H         -2.77159        2.76683        3.68398
C         -0.99765        2.03089        4.63587
H         -1.27735        2.38930        5.61309
C          0.19282        1.35047        4.46473
H          0.84284        1.17775        5.30664
C          0.54608        0.88298        3.21155
H          1.46453        0.33688        3.06234
Pd        -1.28540        1.50077       -0.95548
Cl        -3.04104        1.99381       -2.26129
Cl         0.12790        0.92474       -2.60583
C         -4.85945        3.39132        0.71394
C         -4.05291        0.96877        0.88111
H         -2.92035        4.20608       -1.14275
H         -3.26371        5.61571       -0.14263
H         -1.71094        4.77964        0.00103
H         -5.10179        3.48192       -0.35389
H         -5.49070        4.13489        1.22379
H         -4.15179        0.58616       -0.14367
C         -5.19539        1.95146        1.19708
C         -3.90560       -0.16950        1.86714
H         -3.19640        4.13836        1.91356
H         -5.36546        1.95893        2.28258
H         -6.13831        1.59760        0.75295
H         -3.73937        0.21084        2.87670
H         -4.79978       -0.79665        1.89060
H         -3.05478       -0.80412        1.61129
C         -1.20875       -3.91331        0.13977
C         -1.12339       -3.32499        1.42835
C         -0.69900       -2.00996        1.52367
C         -0.44214       -1.27037        0.39969
C         -0.62899       -1.80199       -0.84829
C         -1.04812       -3.10893       -1.01693
O         -1.41464       -5.31250        0.00955
C         -1.44891       -4.10272        2.71311
H         -0.55360       -1.54531        2.48279
H         -0.42608       -1.17250       -1.69732
C         -1.28710       -3.63145       -2.44148
C          4.51349        0.75248       -0.66393
C          3.83074       -0.48267       -0.80105
C          2.49934       -0.53719       -0.42778
C          1.86973        0.54749        0.12375
C          2.55125        1.71417        0.35042
C          3.88851        1.83570        0.00693
O          5.80426        0.91659       -1.23318
C          4.48704       -1.74182       -1.38834
H          1.92537       -1.43349       -0.58329
H          2.01638        2.53754        0.79167
C          4.62751        3.14347        0.33169
C         -1.96474       -3.14998        3.81563
C         -2.55773       -5.14153        2.46494
C         -0.17685       -4.79724        3.22207
C         -1.77775       -2.48970       -3.36221
C          0.03051       -4.18494       -3.00542
C         -2.37480       -4.72030       -2.45998
C         -0.21250       -6.07071       -0.04208
H         -2.80595       -2.55886        3.45548
H         -2.30180       -3.71303        4.68566
H         -1.18737       -2.46872        4.15819
H         -2.83580       -5.64667        3.38959
H         -3.44807       -4.66256        2.05881
H         -2.23688       -5.90294        1.75829
H          0.21080       -5.49783        2.48641
H          0.60486       -4.06637        3.42802
H         -0.37410       -5.34899        4.14083
H         -0.99881       -1.74990       -3.54000
H         -2.07643       -2.87830       -4.33539
H         -2.63764       -1.98200       -2.92603
H          0.79408       -3.40782       -3.03236
H          0.41007       -5.00001       -2.39365
H         -0.10547       -4.55933       -4.01966
H         -3.30007       -4.34497       -2.02409
H         -2.58673       -5.04531       -3.47827
H         -2.07048       -5.59577       -1.89209
H          0.65482       -5.41715        0.06021
H         -0.21052       -6.80624        0.76223
H         -0.15530       -6.60382       -0.99088
C          5.78718        1.38636       -2.57543
C          4.26877       -1.76228       -2.90895
C          5.99109       -1.78807       -1.06474
C          3.85658       -3.01835       -0.78400
C          6.12124        2.88638        0.60214
C          4.46250        4.12435       -0.83902
C          4.04653        3.79483        1.60744
H          3.20481       -1.75302       -3.14483
H          4.71916       -0.89383       -3.38356
H          4.70625       -2.65518       -3.35476
H          6.44218       -2.71066       -1.42921
H          6.52208       -0.95857       -1.52475
H          6.15374       -1.73272        0.01111
H          2.82445       -3.15146       -1.10487
H          4.40456       -3.90635       -1.09828
H          3.87513       -2.98172        0.30491
H          6.62409        2.49999       -0.28079
H          6.63010        3.80437        0.89512
H          6.24642        2.15854        1.40309
H          3.40856        4.33378       -1.02035
H          4.96393        5.06914       -0.63078
H          4.88070        3.71723       -1.75641
H          4.03216        3.08399        2.43329
H          3.03216        4.15790        1.44947
H          4.64803        4.65069        1.91297
H          6.33852        2.32415       -2.64180
H          6.27400        0.65880       -3.22459
H          4.76073        1.54271       -2.90983
