58
-89.86231164
P          1.66822        0.08922        0.75791
C          2.87525        1.38368        0.45925
C          4.21092        1.06028        0.38689
C          5.14702        2.05199        0.15488
C          4.73654        3.36106       -0.00300
C          3.39495        3.68036        0.07020
C          2.46115        2.68656        0.30308
H          1.40968        2.92089        0.35061
H          4.51454        0.03265        0.50692
C          2.37581       -1.51935        0.36194
C          2.47672       -1.88687       -0.96013
C          2.98890       -3.12476       -1.29934
C          3.40389       -3.98941       -0.30651
C          3.31434       -3.61455        1.01949
C          2.80150       -2.37425        1.35425
H          2.73913       -2.07187        2.38664
H          2.16029       -1.19310       -1.72144
C          1.20667        0.18576        2.54154
C          0.05006        1.13758        2.81209
C         -1.31616        0.50051        2.61893
P         -1.76233        0.14820        0.86112
C         -1.90362       -1.62908        0.60467
C         -3.05234       -2.21003        0.11813
C         -3.09567       -3.57643       -0.09168
C         -1.98433       -4.35167        0.17693
C         -0.82773       -3.76335        0.64813
C         -0.79116       -2.39812        0.86015
H          0.11911       -1.91947        1.17527
H         -3.90383       -1.59320       -0.11509
C         -3.29681        1.02934        0.53800
C         -4.45920        0.59242        1.13316
C         -5.64186        1.27866        0.92178
C         -5.64998        2.40593        0.12444
C         -4.47878        2.85198       -0.45500
C         -3.29821        2.16379       -0.24098
H         -2.37655        2.50286       -0.68618
H         -4.43502       -0.27717        1.77104
Pd        -0.08494        0.42029       -0.73065
Cl         1.47790        0.89398       -2.27992
Cl        -1.74901        0.53768       -2.23707
H         -1.38779       -0.43905        3.17060
H         -2.10806        1.14788        3.00497
H          0.12498        1.51917        3.84246
H          0.14125        2.02280        2.16879
H          0.97038       -0.81353        2.90998
H          2.11655        0.50229        3.05844
H          6.19349        1.80197        0.09459
H          3.07423        4.70110       -0.05820
H          3.06390       -3.41199       -2.33524
H          3.64415       -4.28745        1.79397
H         -3.99414       -4.03415       -0.47191
H          0.04955       -4.36049        0.83507
H         -6.55390        0.93492        1.38148
H         -4.48323        3.73366       -1.07461
H          5.46430        4.13459       -0.18669
H          3.80265       -4.95630       -0.56699
H         -2.01644       -5.41569        0.00802
H         -6.57085        2.94053       -0.04277
