72
-98.09102732
Fe        -0.03326        2.77418       -0.03021
P          1.81190       -0.11175        0.07440
P         -1.92669       -0.08865       -0.08867
C          1.39935        1.57247        0.67747
C          0.44094        1.87351        1.72769
C          0.41221        3.31424        1.90986
C          1.37414        3.90190        0.99546
C          1.99988        2.82547        0.24689
C         -1.45938        1.56203       -0.74556
C         -2.04644        2.83345       -0.35441
C         -1.38799        3.88584       -1.11008
C         -0.41408        3.26825       -1.99152
C         -0.45458        1.83462       -1.76117
C          3.04954       -0.86382        1.22226
C          4.38295       -0.51584        0.54148
C          2.84500       -0.03218       -1.46442
C          4.23959       -0.50734       -1.00513
C         -3.35637       -0.73905       -1.06471
C         -4.55475       -0.21220       -0.25718
C         -2.75591        0.08781        1.56015
C         -4.24386       -0.20111        1.26544
H         -0.13781        1.14348        2.29387
H         -0.20454        3.85695        2.62984
H          1.60742        4.96512        0.90575
H          2.78563        2.93527       -0.50305
H         -2.85071        2.96779        0.37202
H          0.15572        1.09140       -2.27348
Cl         1.52521       -3.08077       -0.29101
Cl        -1.71102       -3.02641        0.09975
Pd        -0.05881       -1.49056       -0.04675
H          2.88919       -1.94797        1.21394
C          2.89094       -0.32389        2.63832
H          2.86822        1.02204       -1.76328
C          2.25711       -0.88250       -2.58620
H          5.17135       -1.21527        0.85978
H          4.70792        0.47536        0.88775
H          5.02627        0.10767       -1.46698
H          4.40587       -1.52483       -1.38407
H         -1.61187        4.95337       -1.05013
H          0.23356        3.78754       -2.70165
H          3.03912        0.76409        2.62176
H          2.28996       -1.93717       -2.28396
H         -3.31802       -1.83297       -1.01324
C         -3.31573       -0.28592       -2.51862
H         -2.61118        1.12997        1.86796
C         -2.14360       -0.85784        2.58866
H         -5.45526       -0.80775       -0.47370
H         -4.78581        0.80792       -0.59536
H         -4.88702        0.52099        1.79008
H         -4.50174       -1.18124        1.68888
H         -4.27844       -0.51561       -2.99625
H         -1.05008       -0.76077        2.57490
C          3.84269       -0.97148        3.63267
H          3.69449       -2.05227        3.67199
H          4.88406       -0.79932        3.35498
H          3.70484       -0.58331        4.64441
C          2.97425       -0.69205       -3.91397
H          2.54166       -1.30843       -4.70532
H          2.92359        0.34779       -4.24251
H          4.03105       -0.95326       -3.83564
C         -2.17845       -0.92645       -3.29914
H         -1.21426       -0.70993       -2.83872
H         -2.28017       -2.01303       -3.32418
H         -2.13748       -0.57398       -4.33216
C         -2.66975       -0.62547        3.99682
H         -2.22181       -1.31104        4.71973
H         -2.45744        0.39130        4.33284
H         -3.75177       -0.76010        4.04408
H          1.85027       -0.46788        2.96136
H          1.18976       -0.65759       -2.69974
H         -3.23185        0.80844       -2.54682
H         -2.33646       -1.89206        2.27405
