58
-89.87156574
P          1.73114        0.14018        0.77878
C          2.36207        1.81432        0.58734
C          3.48524        2.17866        1.29564
C          3.98720        3.46276        1.17870
C          3.35725        4.37510        0.35572
C          2.22858        4.00725       -0.34940
C          1.73036        2.72272       -0.23206
H          0.85474        2.42683       -0.78563
H          3.96483        1.45658        1.93802
C          2.89894       -1.08843        0.18075
C          4.10930       -0.70853       -0.35180
C          4.97989       -1.66805       -0.83537
C          4.62913       -3.00278       -0.78494
C          3.41056       -3.37950       -0.25557
C          2.54159       -2.41701        0.22694
H          1.58070       -2.69549        0.63008
H          4.36246        0.33765       -0.40159
C          1.43465       -0.15888        2.57874
C          0.13929       -0.88189        2.91453
C         -1.10672       -0.04411        2.65473
P         -1.69083       -0.19285        0.91981
C         -2.66018       -1.69666        0.77136
C         -3.90673       -1.75419        1.35267
C         -4.65687       -2.91289        1.25781
C         -4.14936       -4.00801        0.58694
C         -2.89407       -3.94915        0.01463
C         -2.14633       -2.78957        0.11076
H         -1.16466       -2.73288       -0.33139
H         -4.28686       -0.89324        1.87991
C         -2.58841        1.28151        0.42013
C         -3.80406        1.18766       -0.21757
C         -4.45316        2.33618       -0.63241
C         -3.87504        3.57094       -0.41216
C         -2.64812        3.66010        0.21554
C         -2.00087        2.50952        0.62961
H         -1.03039        2.56267        1.09743
H         -4.23218        0.21658       -0.40476
Pd        -0.04606       -0.13924       -0.68833
Cl         1.55362        0.08674       -2.26190
Cl        -1.61760       -0.55950       -2.23706
H         -1.94646       -0.35988        3.27905
H         -0.92437        1.00801        2.87960
H          0.07399       -1.81979        2.34651
H          0.16261       -1.18525        3.97303
H          2.30455       -0.71354        2.93969
H          1.46166        0.81536        3.07133
H          4.86790        3.74932        1.72967
H          1.73746        4.71825       -0.99332
H          5.92701       -1.37310       -1.25636
H          3.13336       -4.42035       -0.22307
H         -5.63512       -2.95975        1.70738
H         -2.49714       -4.80384       -0.50807
H         -5.40498        2.26595       -1.13280
H         -2.19150        4.62276        0.37700
H          3.74761        5.37548        0.26291
H          5.30523       -3.75138       -1.16465
H         -4.73344       -4.91066        0.51086
H         -4.37913        4.46635       -0.73750
