58
-89.86383335
P          1.74464        0.71316        0.60929
C          3.42969        1.27697        0.31536
C          3.74618        2.13541       -0.71132
C          5.05116        2.55164       -0.89145
C          6.03897        2.10178       -0.03839
C          5.72265        1.23677        0.99032
C          4.41335        0.82405        1.16616
H          4.15353        0.14481        1.96287
H          2.96879        2.46636       -1.37732
C          1.81112       -1.08863        0.60939
C          1.92401       -1.81123        1.77506
C          1.96554       -3.19249        1.72811
C          1.90575       -3.84369        0.51251
C          1.81252       -3.11627       -0.65644
C          1.77023       -1.73489       -0.60525
H          1.70556       -1.15438       -1.51226
H          1.99520       -1.29991        2.72048
C          1.23334        1.40026        2.24578
C         -0.25572        1.35800        2.56526
C         -0.89438       -0.02106        2.43026
P         -1.53501       -0.29040        0.72415
C         -1.56078       -2.02009        0.24611
C         -1.67291       -2.31583       -1.09280
C         -1.69926       -3.63382       -1.50910
C         -1.62080       -4.64813       -0.57537
C         -1.52264       -4.34735        0.76921
C         -1.49520       -3.02732        1.18185
H         -1.42263       -2.78096        2.22859
H         -1.74763       -1.50596       -1.80106
C         -3.18978        0.40493        0.64884
C         -3.37673        1.76181        0.51618
C         -4.65935        2.27717        0.46488
C         -5.74627        1.42967        0.54994
C         -5.55447        0.06890        0.68484
C         -4.27040       -0.44354        0.73462
H         -4.10390       -1.50417        0.83613
H         -2.52164        2.41293        0.43338
Pd        -0.15338        0.84258       -0.76091
Cl         1.01542        2.19259       -2.11134
Cl        -1.94453        0.83966       -2.12793
H         -0.18911       -0.81087        2.68593
H         -1.75554       -0.13903        3.09314
H         -0.41306        1.74395        3.58465
H         -0.79137        2.06106        1.91320
H          1.80308        0.85755        3.00158
H          1.60323        2.42848        2.26738
H          5.29645        3.22326       -1.69777
H          6.49314        0.88254        1.65527
H          2.04556       -3.76006        2.64071
H          1.76755       -3.62213       -1.60684
H         -1.78185       -3.86667       -2.55792
H         -1.46402       -5.13988        1.49703
H         -4.80884        3.33853        0.35323
H         -6.40211       -0.59344        0.74877
H          7.05811        2.42416       -0.17694
H          1.93267       -4.92054        0.47591
H         -1.63879       -5.67687       -0.89634
H         -6.74584        1.83068        0.50776
