105
-153.06146212
Cl         0.35769        3.67777        1.61904
Pd        -0.17043        1.97605        0.25142
P         -0.67907        0.22803       -1.29438
N          0.16277       -1.19771       -1.93842
C          0.25661       -2.52426       -1.52934
C         -0.07356       -2.99671       -0.22968
C          0.26536       -4.32015        0.12896
C          0.16877       -4.75079        1.57470
C          0.01912       -6.26909        1.74266
C          1.12890       -6.99747        0.97805
C          1.09181       -6.64792       -0.51991
C          0.78362       -5.20002       -0.82470
C          1.01780       -4.73765       -2.11268
C          0.78424       -3.42972       -2.44938
H          1.01701       -3.08185       -3.44101
H          1.41474       -5.41866       -2.84659
H          2.04826       -6.90897       -0.99059
H          2.10250       -6.71091        1.39533
H          0.01960       -6.55160        2.80495
H          1.07722       -4.41451        2.08901
C         -0.69320       -2.12698        0.80543
C          0.10026       -1.11768        1.40904
C         -0.39361       -0.43360        2.52028
C         -1.64628       -0.71083        3.00293
C         -2.45745       -1.66863        2.40111
C         -3.82644       -1.91759        2.97787
C         -4.39610       -3.29154        2.59594
C         -4.29043       -3.51263        1.08415
C         -2.83201       -3.42778        0.60209
C         -1.98786       -2.37957        1.29329
H         -2.35630       -4.40624        0.72745
H         -4.88902       -2.75211        0.57060
H         -5.43624       -3.39504        2.93633
H         -4.50203       -1.12654        2.63173
H         -2.02387       -0.16871        3.85320
H          0.20830        0.33264        2.97327
N          1.26564       -0.73814        0.74835
P          1.77416        0.89132        0.98081
C          2.89425        1.39828       -0.31556
C          3.11234        2.74015       -0.51841
C          3.89737        3.15318       -1.57928
C          4.46486        2.22324       -2.44079
C          4.22039        0.87324       -2.22456
C          3.43532        0.46144       -1.16293
H          3.23041       -0.58445       -1.00132
H          4.64053        0.14692       -2.89914
C          5.27644        2.66699       -3.60761
H          4.06113        4.20290       -1.75304
H          2.63075        3.45432        0.13139
C          2.54971        0.98996        2.59409
C          3.31466       -0.07689        3.00144
C          3.92853       -0.04911        4.24154
C          3.77251        1.04532        5.08193
C          3.00123        2.11533        4.64828
C          2.39005        2.08373        3.40975
H          1.77977        2.90435        3.07378
H          2.88223        2.97337        5.28764
C          4.45206        1.08823        6.40638
H          4.53260       -0.87991        4.56388
H          3.41876       -0.92959        2.34852
H          1.13432       -0.85175       -0.25593
H          0.39555       -0.99656       -2.90304
C         -0.55982        1.37163       -2.68054
C          0.68633        1.85584       -2.99550
C          0.83741        2.73972       -4.04788
C         -0.26096        3.13645       -4.79798
C         -1.51298        2.63894       -4.46160
C         -1.66028        1.75534       -3.40850
H         -2.63260        1.37509       -3.14284
H         -2.37385        2.95367       -5.02637
C         -0.10627        4.11352       -5.91085
H          1.81105        3.13186       -4.28683
H          1.53677        1.55129       -2.40876
C         -2.41329       -0.19905       -1.12765
C         -2.93998       -1.06669       -2.05460
C         -4.28830       -1.37639       -2.02250
C         -5.11582       -0.82092       -1.05626
C         -4.56519        0.05313       -0.12908
C         -3.21810        0.36095       -0.16405
H         -2.79630        1.04766        0.55102
H         -5.20094        0.49950        0.61630
C         -6.57279       -1.12814       -1.03615
H         -4.70581       -2.04995       -2.75116
H         -2.29145       -1.49502       -2.80264
Cl        -1.90633        3.13335       -0.58489
H          0.34177       -7.27052       -1.02231
H         -0.95734       -6.58309        1.35309
H          1.05441       -8.08387        1.12765
H         -0.65011       -4.22798        2.08049
H         -4.73894       -4.47517        0.80074
H         -2.80232       -3.23560       -0.47749
H         -3.78250       -1.81157        4.06936
H         -3.83384       -4.07617        3.11786
H          4.65018        2.78218       -4.49337
H          5.75980        3.62482       -3.41034
H          6.05891        1.94335       -3.84026
H          3.87685        1.67360        7.12508
H          4.57430        0.08586        6.81914
H          5.44134        1.53955        6.31950
H         -0.22794        5.13496       -5.54793
H          0.88012        4.03464       -6.37012
H         -0.84922        3.94252       -6.69113
H         -6.76909       -2.13228       -1.41480
H         -6.97324       -1.07247       -0.02282
H         -7.12573       -0.42068       -1.65549
