87
-129.17992727
P         -1.69244       -0.43977        0.06892
P          1.52428        0.07913       -0.10925
C         -1.40058        0.84860       -1.16445
C          1.24442       -0.92094       -1.57720
C         -0.49950        0.73679       -2.22080
C         -0.24853        1.87153       -3.01642
C         -0.92882        3.04917       -2.75687
C         -1.81797        3.14062       -1.70839
C         -2.03696        2.03968       -0.90339
C          2.02261       -2.02435       -1.82787
C          1.80821       -2.77648       -2.96601
C          0.81099       -2.41536       -3.84805
C          0.01982       -1.30191       -3.61745
C          0.25333       -0.52257       -2.46655
Cl         1.33900        1.76647        2.65225
Cl        -1.77065        1.23835        2.83341
H         -2.32225        4.07050       -1.50273
H         -2.68479        2.11295       -0.04278
H          2.80832       -2.29099       -1.14131
H          2.41518       -3.64527       -3.16132
H         -0.73586        3.90981       -3.37471
H          0.63718       -3.00359       -4.73305
C         -0.64451       -4.74681       -0.91654
C         -1.45598       -4.03521       -1.78933
C         -1.76872       -2.71637       -1.47873
C         -1.27501       -2.13689       -0.33399
C         -0.50531       -2.86076        0.54610
C         -0.17818       -4.17017        0.24848
H         -0.38758       -5.76482       -1.15519
C         -1.95299       -4.66537       -3.04256
H         -2.39179       -2.13682       -2.13932
H         -0.18791       -2.40607        1.47128
H          0.43101       -4.74293        0.92855
C         -6.03504       -0.51394        1.41717
C         -5.72140       -0.09366        0.13956
C         -4.40196       -0.06256       -0.27162
C         -3.40842       -0.44102        0.60135
C         -3.71887       -0.87876        1.86724
C         -5.04052       -0.92135        2.29592
H         -7.06119       -0.52989        1.74284
H         -6.50349        0.21085       -0.53650
H         -4.14161        0.25315       -1.26944
H         -2.92747       -1.18024        2.53370
C         -5.36952       -1.35057        3.68237
C          4.69469       -1.74602        2.61987
C          3.66472       -2.53819        2.15364
C          2.70021       -1.99835        1.32517
C          2.77449       -0.67533        0.95661
C          3.79885        0.11512        1.42476
C          4.77103       -0.40528        2.27063
H          5.44877       -2.16443        3.26456
H          3.61116       -3.57675        2.43669
H          1.89385       -2.60865        0.95835
H          3.83920        1.15390        1.14326
C          5.88399        0.45298        2.76003
C          3.04064        4.09869       -1.60480
C          3.68568        2.93172       -1.96452
C          3.22723        1.71625       -1.49087
C          2.13187        1.67967       -0.66003
C          1.48802        2.84055       -0.30058
C          1.93748        4.07065       -0.76313
H          3.38892        5.04573       -1.98042
H          4.54083        2.96646       -2.61937
H          3.70920        0.79333       -1.77360
H          0.62086        2.79574        0.33583
C          1.21657        5.32095       -0.40131
Pd        -0.10507        0.43121        1.55729
C          0.75636        1.84583       -4.11594
C         -1.05553       -0.95343       -4.58643
H          1.37476        2.74445       -4.09622
H          1.42547        0.98939       -4.02719
H          0.26768        1.79537       -5.08963
H         -0.63405       -0.53831       -5.50272
H         -1.63767       -1.83601       -4.85528
H         -1.74593       -0.21932       -4.16935
H         -2.39217       -5.64318       -2.83966
H         -2.71721       -4.05045       -3.51994
H         -1.13945       -4.80270       -3.75617
H         -5.26774       -0.51689        4.37851
H         -6.39258       -1.72332        3.74927
H         -4.70336       -2.14845        4.01381
H          5.55142        1.48259        2.90003
H          6.26591        0.09596        3.71748
H          6.71042        0.45952        2.04799
H          1.89945        6.17036       -0.35509
H          0.44327        5.54817       -1.13644
H          0.73633        5.22792        0.57389
