171
-217.83551006
P         -1.66504        0.80955        0.23218
P          1.51556       -0.30939       -0.32755
C         -0.87970        1.85236       -1.02036
C          0.53904       -0.96894       -1.69547
C         -0.21631        1.36399       -2.14104
C          0.47978        2.26777       -2.96528
C          0.44959        3.61910       -2.66608
C         -0.22392        4.08833       -1.55885
C         -0.87547        3.19639       -0.72879
C          0.53834       -2.31347       -1.97949
C         -0.21432       -2.80566       -3.02745
C         -0.98155       -1.94503       -3.78353
C         -1.01437       -0.58880       -3.50379
C         -0.22543       -0.08817       -2.45056
Cl         2.27716        1.25808        2.42451
Cl        -0.68928        1.05377        3.41675
C         -1.86901        0.32558       -4.31114
C          1.27060        1.80594       -4.13957
H         -0.23064        5.14216       -1.33310
H         -1.37709        3.54472        0.16202
H          1.10815       -2.98974       -1.36723
H         -0.20846       -3.86027       -3.24943
H          0.96979        4.30602       -3.31202
H         -1.56840       -2.32712       -4.60141
C         -3.02483       -3.41606       -0.70038
C         -1.92526       -3.25583        0.13397
C         -1.49456       -1.96177        0.40383
C         -2.13087       -0.88314       -0.16735
C         -3.21488       -1.06521       -0.99021
C         -3.68999       -2.33862       -1.27134
H         -3.37957       -4.41130       -0.89086
H         -0.65897       -1.78995        1.05789
H         -3.71452       -0.20363       -1.39756
C         -5.49423        2.85315        1.53302
C         -4.61744        2.40946        2.51629
C         -3.44039        1.80116        2.10602
C         -3.15369        1.65351        0.77388
C         -4.02463        2.10805       -0.18591
C         -5.22231        2.71214        0.17743
H         -6.41498        3.32368        1.82245
H         -2.72673        1.45297        2.83047
H         -3.75667        1.99242       -1.22239
C          3.65829       -3.72733        1.79895
C          3.73969       -3.62478        0.41684
C          3.10069       -2.55349       -0.19531
C          2.36892       -1.65212        0.54074
C          2.30471       -1.77796        1.90854
C          2.95193       -2.81344        2.56770
H          4.16794       -4.53536        2.29080
H          3.16610       -2.42264       -1.26055
H          1.76120       -1.04888        2.47732
C          4.62243        2.51321       -2.03544
C          4.53315        1.22057       -2.53867
C          3.57811        0.37532       -1.98810
C          2.75665        0.80944       -0.97740
C          2.85393        2.09225       -0.50006
C          3.79325        2.97276       -1.02006
H          5.35915        3.18419       -2.43522
H          3.46632       -0.62777       -2.36140
H          2.19032        2.40235        0.28669
Pd         0.32206        0.70954        1.44082
C         -0.85946       -5.48857       -0.33803
C         -1.27198       -4.49497        0.76500
C         -2.28151       -5.16454        1.71453
C         -0.01374       -4.12847        1.56964
H         -0.15127       -5.02938       -1.02618
H         -0.38325       -6.36978        0.09161
H         -1.71897       -5.82525       -0.91585
H         -3.17422       -5.48528        1.17866
H         -1.84517       -6.04096        2.19343
H         -2.59146       -4.47137        2.49638
H          0.44973       -5.02079        1.98968
H          0.72410       -3.64568        0.93196
H         -0.25253       -3.45787        2.39456
C         -5.29211       -3.98044       -2.37546
C         -4.95826       -2.49798       -2.12223
C         -4.76078       -1.80677       -3.48306
C         -6.13974       -1.84439       -1.38131
H         -6.18049       -4.07537       -2.99980
H         -4.47212       -4.48362       -2.88773
H         -5.49071       -4.50436       -1.44073
H         -4.57084       -0.74114       -3.36292
H         -3.91742       -2.24392       -4.01579
H         -5.64666       -1.91660       -4.10835
H         -6.29012       -2.31175       -0.40837
H         -5.96179       -0.78219       -1.21655
H         -7.06302       -1.94451       -1.95161
C         -4.93207        1.17187        4.67310
C         -4.89762        2.56507        4.01766
C         -6.24650        3.26244        4.27784
C         -3.77863        3.40902        4.65650
H         -3.97740        0.65897        4.56207
H         -5.14764        1.24706        5.73873
H         -5.70114        0.55003        4.21536
H         -6.42844        3.36519        5.34758
H         -6.26153        4.26192        3.84358
H         -7.07222        2.68905        3.85686
H         -3.95835        3.55352        5.72159
H         -2.80743        2.92825        4.54533
H         -3.72114        4.39070        4.18686
C         -6.42467        4.72581       -0.70835
C         -6.23424        3.20646       -0.86593
C         -7.57917        2.48746       -0.65141
C         -5.75488        2.91898       -2.30296
H         -5.47675        5.24758       -0.83885
H         -7.12655        5.10999       -1.44835
H         -6.81089        4.97588        0.27912
H         -7.45587        1.40784       -0.73457
H         -7.99144        2.70205        0.33376
H         -8.31210        2.80147       -1.39440
H         -6.48657        3.26750       -3.03169
H         -4.81396        3.42750       -2.51252
H         -5.61384        1.85011       -2.46312
C          4.41331       -4.43150       -1.90248
C          4.50328       -4.68775       -0.38505
C          3.89607       -6.07320       -0.09363
C          5.98548       -4.66819        0.02879
H          4.94463       -5.20465       -2.45731
H          3.37704       -4.43602       -2.24035
H          4.85933       -3.47338       -2.16651
H          4.39959       -6.84904       -0.67010
H          3.98447       -6.33230        0.96069
H          2.83791       -6.09131       -0.35473
H          6.42309       -3.68728       -0.15627
H          6.10307       -4.89227        1.08841
H          6.55775       -5.40532       -0.53420
C          4.37044       -2.74589        4.62684
C          2.93752       -2.93723        4.09860
C          2.41658       -4.32807        4.50557
C          2.02978       -1.87205        4.74706
H          4.75919       -1.77007        4.33626
H          4.39826       -2.81093        5.71437
H          5.04194       -3.50564        4.22827
H          2.40558       -4.43642        5.58999
H          1.40032       -4.48105        4.14485
H          3.04095       -5.12278        4.09952
H          1.00382       -1.95988        4.39012
H          2.01312       -1.98572        5.83073
H          2.38540       -0.86526        4.52907
C          4.63240        0.13201       -4.80471
C          5.46712        0.68917       -3.63562
C          6.33992       -0.43276       -3.04438
C          6.38989        1.79446       -4.18398
H          3.98736       -0.68424       -4.48205
H          4.00166        0.90958       -5.23415
H          5.27794       -0.24966       -5.59555
H          5.72670       -1.25362       -2.67515
H          7.02232       -0.83418       -3.79335
H          6.93380       -0.05960       -2.21025
H          7.02800        1.40651       -4.97791
H          5.80943        2.61847       -4.59876
H          7.04058        2.18734       -3.40303
C          5.36072        4.56239        0.11522
C          3.95151        4.40233       -0.48334
C          2.91647        4.71317        0.61640
C          3.75749        5.40792       -1.63262
H          5.51998        3.84350        0.91872
H          6.13111        4.39899       -0.63749
H          5.49994        5.56293        0.52422
H          1.89977        4.61257        0.23808
H          3.03522        4.04344        1.46790
H          3.03352        5.73340        0.98117
H          2.76789        5.30044       -2.07453
H          3.85616        6.43254       -1.27460
H          4.49438        5.25824       -2.42072
H         -2.39057        1.03825       -3.67001
H          1.37021        0.71991       -4.15515
H         -2.62184       -0.22617       -4.87552
H         -1.26994        0.89122       -5.02531
H          2.27637        2.22799       -4.11246
H          0.80248        2.11743       -5.07437
