111
-148.55518728
P         -2.58415        1.98222        0.82876
P          0.15571        0.44635        0.48650
C         -1.49245        1.76285        2.26143
C         -0.27450        1.13916        2.09501
C         -3.49432        3.59258        0.89085
C         -2.88572        4.61659       -0.04206
C         -1.87197        2.20657        3.51220
H         -2.83384        2.67413        3.64344
C         -1.02312        2.03249        4.59174
H         -1.31869        2.37912        5.56854
C          0.19969        1.41238        4.42034
H          0.85871        1.27408        5.26162
C          0.57285        0.95852        3.16814
H          1.51479        0.45369        3.02045
Pd        -1.27532        1.48312       -1.00390
Cl        -2.91033        2.26951       -2.32614
Cl        -0.03764        0.75426       -2.73471
C         -4.93593        3.17709        0.54431
C         -4.00657        0.79923        0.77206
H         -2.91416        4.26710       -1.07474
H         -3.42654        5.56493       -0.00132
H         -1.84027        4.81038        0.20932
H         -5.07668        3.26680       -0.54176
H         -5.65656        3.87641        0.99516
H         -4.01347        0.38177       -0.24383
C         -5.22825        1.71372        0.98446
C         -3.85425       -0.29776        1.80330
H         -3.44055        3.94182        1.92964
H         -5.49900        1.69981        2.04916
H         -6.10402        1.31176        0.45272
H         -2.95220       -0.88586        1.62387
H         -3.77668        0.12291        2.80760
H         -4.70841       -0.97873        1.79222
C         -1.21590       -3.89589        0.28247
C         -1.00985       -3.28372        1.54558
C         -0.56835       -1.97142        1.57570
C         -0.40517       -1.25492        0.41953
C         -0.70437       -1.81094       -0.79549
C         -1.15059       -3.11552       -0.89952
O         -1.44994       -5.29439        0.20161
C         -1.23512       -4.03058        2.86945
H         -0.34369       -1.48770        2.50973
H         -0.57386       -1.20306       -1.67314
C         -1.53262       -3.65887       -2.28483
C          4.54164        0.78359       -0.69080
C          3.80523       -0.38596       -1.00755
C          2.47323       -0.43971       -0.63538
C          1.89244        0.57478        0.07914
C          2.62435        1.66484        0.47128
C          3.96503        1.77939        0.13961
O          5.83967        0.97499       -1.23458
C          4.40705       -1.57078       -1.77903
H          1.86047       -1.27818       -0.91610
H          2.12774        2.43341        1.03790
C          4.76387        2.98605        0.65738
C         -1.62214       -3.04572        3.99648
C         -2.38860       -5.04209        2.74174
C          0.05939       -4.75193        3.27336
C         -2.10316       -2.52758       -3.17186
C         -0.28173       -4.23397       -2.96641
C         -2.62573       -4.73732       -2.17820
C         -0.26755       -6.06977        0.04959
H         -1.89948       -3.58480        4.90205
H         -0.79585       -2.38646        4.25824
H         -2.47195       -2.43125        3.70095
H         -2.59159       -5.52769        3.69591
H         -3.30051       -4.54447        2.41330
H         -2.15461       -5.82067        2.01972
H         -0.06580       -5.27840        4.21921
H          0.35618       -5.47913        2.52155
H          0.87700       -4.04061        3.38808
H         -1.34049       -1.79716       -3.43727
H         -2.49829       -2.92892       -4.10465
H         -2.91279       -2.00600       -2.66205
H          0.47859       -3.46287       -3.08854
H          0.15412       -5.03777       -2.37758
H         -0.52162       -4.62972       -3.95290
H         -3.49941       -4.34702       -1.65725
H         -2.94158       -5.07427       -3.16519
H         -2.27334       -5.60784       -1.63095
H         -0.20819       -6.80402        0.85292
H         -0.29826       -6.60501       -0.89919
H          0.61444       -5.42849        0.07625
C          5.84710        1.63762       -2.49290
C          5.90791       -1.72835       -1.47614
C          3.72326       -2.89494       -1.36546
C          4.18715       -1.35640       -3.28433
C          4.20457        3.46811        2.01547
C          6.24053        2.61617        0.88802
C          4.65845        4.13814       -0.35315
H          6.47411       -0.86332       -1.81183
H          6.07323       -1.84007       -0.40509
H          6.31866       -2.60510       -1.97622
H          4.23176       -3.74892       -1.81238
H          3.74492       -3.02119       -0.28332
H          2.68594       -2.93464       -1.69415
H          4.59067       -2.18833       -3.86089
H          3.12407       -1.27288       -3.50944
H          4.66925       -0.44402       -3.62713
H          4.14798        2.64382        2.72601
H          4.84478        4.23770        2.44617
H          3.21075        3.90102        1.91207
H          6.73124        2.34239       -0.04264
H          6.79174        3.45260        1.31701
H          6.32220        1.77052        1.57007
H          3.61801        4.42583       -0.50220
H          5.06405        3.85234       -1.32060
H          5.20479        5.01430       -0.00487
H          6.44617        2.54549       -2.42413
H          6.29614        0.99003       -3.24571
H          4.83028        1.89376       -2.79334
