171
-217.83627552
P         -1.67221        0.75585        0.29414
P          1.50355       -0.27393       -0.34636
C         -0.91657        1.81718       -0.95957
C          0.53033       -0.96239       -1.69928
C         -0.29927        1.34654       -2.11294
C          0.36196        2.26454       -2.95045
C          0.36171        3.60856       -2.61811
C         -0.25844        4.05841       -1.47245
C         -0.88957        3.15452       -0.63975
C          0.59463       -2.29973       -2.00660
C         -0.16491       -2.81156       -3.04056
C         -0.99833       -1.97875       -3.75798
C         -1.08279       -0.62780       -3.46258
C         -0.28683       -0.10526       -2.42590
Cl         2.26493        1.22378        2.48009
Cl        -0.76112        0.74011        3.45789
C         -1.99262        0.25939       -4.23910
C          1.08638        1.82558       -4.17520
H         -0.24108        5.10615       -1.22052
H         -1.35484        3.48744        0.27639
H          1.23177       -2.94971       -1.43207
H         -0.11035       -3.85983       -3.28446
H          0.86635        4.30483       -3.26656
H         -1.59358       -2.37828       -4.56139
C         -3.02067       -3.46163       -0.68738
C         -3.71771       -2.37819       -1.20621
C         -3.24518       -1.10684       -0.91180
C         -2.13338       -0.93311       -0.12480
C         -1.46509       -2.01794        0.39540
C         -1.89197       -3.30967        0.10868
H         -3.37275       -4.45569       -0.88851
H         -3.76780       -0.24080       -1.27937
H         -0.60731       -1.85241        1.02162
C         -5.50953        2.75869        1.63535
C         -4.64560        2.27221        2.60972
C         -3.46585        1.67697        2.18842
C         -3.16355        1.58360        0.85487
C         -4.02333        2.07719       -0.09567
C         -5.22308        2.67059        0.27826
H         -6.43199        3.22058        1.93312
H         -2.76489        1.29034        2.90562
H         -3.74592        1.99771       -1.13314
C          3.84744       -3.60257        1.70229
C          3.99168       -3.39747        0.33674
C          3.26572       -2.36622       -0.24649
C          2.41109       -1.59260        0.50125
C          2.28874       -1.81518        1.85293
C          3.01067       -2.81845        2.48396
H          4.41077       -4.38789        2.17178
H          3.36310       -2.16163       -1.29758
H          1.63567       -1.19173        2.43264
C          4.50079        2.60946       -2.13745
C          4.32341        1.36517       -2.72949
C          3.40201        0.49950       -2.15156
C          2.70323        0.86991       -1.02862
C          2.88612        2.10685       -0.46473
C          3.78522        3.00937       -1.01608
H          5.22603        3.28382       -2.55371
H          3.20519       -0.46370       -2.58862
H          2.32837        2.35876        0.41847
Pd         0.32661        0.67018        1.48722
C         -4.85172       -1.82997       -3.38009
C         -5.01095       -2.53134       -2.01973
C         -6.17076       -1.88366       -1.24014
C         -5.35281       -4.01185       -2.27389
H         -4.02187       -2.26153       -3.93836
H         -5.75397       -1.93665       -3.98207
H         -4.66041       -0.76498       -3.25618
H         -6.29136       -2.35680       -0.26585
H         -5.99025       -0.82200       -1.07478
H         -7.11046       -1.98229       -1.78325
H         -4.55158       -4.51003       -2.81962
H         -5.51748       -4.54387       -1.33714
H         -6.26277       -4.10206       -2.86707
C         -0.84000       -5.52791       -0.45607
C         -1.20348       -4.55687        0.68355
C         -2.16327       -5.24880        1.66791
C          0.09095       -4.19917        1.43244
H         -0.34074       -6.41472       -0.06593
H         -1.72406       -5.85821       -0.99944
H         -0.16634       -5.05202       -1.16709
H         -3.08005       -5.56242        1.16975
H         -1.70140       -6.13254        2.10783
H         -2.43688       -4.57211        2.47728
H          0.58113       -5.09782        1.80585
H          0.79323       -3.69363        0.77224
H         -0.11257       -3.55219        2.28497
C         -4.99847        0.94340        4.70520
C         -4.94467        2.36389        4.11270
C         -6.29155        3.06021        4.38576
C         -3.82807        3.16967        4.80294
H         -4.04647        0.42796        4.58347
H         -5.22726        0.97312        5.77030
H         -5.76633        0.34887        4.21062
H         -6.48625        3.11874        5.45659
H         -6.29367        4.07735        3.99433
H         -7.11613        2.51186        3.93062
H         -4.02124        3.26867        5.87088
H         -2.85915        2.68625        4.68366
H         -3.75673        4.17057        4.37787
C         -7.57200        2.49059       -0.58390
C         -6.22133        3.21029       -0.75569
C         -5.72763        2.97641       -2.19756
C         -6.40605        4.72333       -0.54093
H         -7.45314        1.41445       -0.70842
H         -7.99383        2.66833        0.40455
H         -8.29533        2.83763       -1.32159
H         -5.59014        1.91379       -2.39762
H         -6.44949        3.35701       -2.92003
H         -4.78193        3.48761       -2.37695
H         -6.80209        4.93667        0.45126
H         -5.45415        5.24470       -0.64040
H         -7.09764        5.13993       -1.27304
C          4.98734       -3.86781       -1.95803
C          4.91520       -4.30930       -0.48271
C          4.37347       -5.74917       -0.42767
C          6.33754       -4.26274        0.10585
H          5.36729       -2.84984       -2.04255
H          5.65495       -4.51722       -2.52411
H          4.00650       -3.91272       -2.43118
H          4.34557       -6.12120        0.59597
H          3.36013       -5.79405       -0.82684
H          4.99788       -6.42434       -1.01251
H          6.35592       -4.62613        1.13249
H          7.02080       -4.88029       -0.47695
H          6.72041       -3.24233        0.10462
C          4.33416       -2.72527        4.60351
C          2.94944       -3.03040        4.00431
C          2.56072       -4.48733        4.31594
C          1.91452       -2.09914        4.66841
H          5.09508       -3.39003        4.19600
H          4.63094       -1.70057        4.38056
H          4.32728       -2.84745        5.68645
H          2.52436       -4.65751        5.39184
H          1.57840       -4.72169        3.90844
H          3.27692       -5.19064        3.89323
H          2.17278       -1.05131        4.51663
H          0.91605       -2.26933        4.26662
H          1.87130       -2.27313        5.74330
C          6.61917        0.71548       -3.46774
C          5.17442        0.95383       -3.94003
C          5.15663        2.06624       -5.00670
C          4.64487       -0.34032       -4.58993
H          7.25768        0.41326       -4.29766
H          7.04120        1.61953       -3.02958
H          6.65239       -0.06896       -2.71171
H          5.73220        1.77072       -5.88381
H          4.13845        2.27702       -5.33142
H          5.58820        2.99192       -4.62899
H          5.22515       -0.59305       -5.47723
H          4.71450       -1.18436       -3.90467
H          3.60448       -0.22769       -4.89429
C          3.07816        4.65805        0.78786
C          4.00943        4.40328       -0.41436
C          3.72294        5.47292       -1.48423
C          5.46809        4.51984        0.06261
H          3.23496        5.65700        1.19424
H          2.03108        4.58076        0.49569
H          3.26639        3.94379        1.58910
H          2.69751        5.39184       -1.84334
H          3.85980        6.47558       -1.07963
H          4.38710        5.36605       -2.34097
H          6.16578        4.39429       -0.76459
H          5.65502        5.49469        0.51259
H          5.69056        3.75556        0.80702
H         -2.73239       -0.31658       -4.79633
H          1.16602        0.73928       -4.22922
H         -1.43391        0.85991       -4.95741
H         -2.53007        0.94059       -3.57724
H          2.09896        2.22996       -4.18463
H          0.57935        2.17394       -5.07611
