75
-122.80735439
P          1.92863       -0.41241       -0.11801
C          3.36583       -0.99307       -1.04713
C          3.91104       -2.22428       -0.75860
C          5.02412       -2.66870       -1.44805
C          5.58981       -1.87500       -2.42538
C          5.04430       -0.64018       -2.71277
C          3.93146       -0.20052       -2.01964
H          3.48586        0.75499       -2.24765
H          5.48039       -0.02097       -3.47935
H          6.45622       -2.22027       -2.96558
H          5.44882       -3.63292       -1.22164
H          3.46840       -2.83431        0.01088
C          1.64293       -1.56138        1.22791
C          2.05786       -1.24493        2.50075
C          1.92373       -2.17424        3.51618
C          1.38236       -3.41548        3.24516
C          0.96963       -3.72821        1.96501
C          1.10104       -2.79591        0.95174
H          0.79345       -3.02766       -0.05607
H          0.54262       -4.69503        1.75520
H          1.27508       -4.13953        4.03622
H          2.24196       -1.92937        4.51611
H          2.48863       -0.27519        2.69182
C          2.28548        1.24548        0.49892
C          3.50391        1.86787        0.34768
C          3.67849        3.18842        0.73686
C          2.58460        3.88395        1.24922
C          1.36187        3.27219        1.41523
C          1.21778        1.91797        1.07316
O          0.02028        1.22459        1.28534
C         -1.17157        1.90324        0.99759
C         -1.33381        3.27454        1.24816
C         -2.51237        3.88829        0.88484
C         -3.54798        3.17278        0.28391
C         -3.37574        1.81527        0.05253
C         -2.20905        1.18773        0.42130
P         -1.81205       -0.54812        0.14980
C         -1.74829       -1.39976        1.74151
C         -1.28123       -0.76423        2.86909
C         -1.30389       -1.41001        4.09055
C         -1.79205       -2.69817        4.17701
C         -2.25354       -3.33926        3.04483
C         -2.23234       -2.68611        1.82571
H         -2.59949       -3.17378        0.93708
H         -2.63154       -4.34627        3.10988
H         -1.80669       -3.20589        5.12758
H         -0.93335       -0.91094        4.97080
H         -0.88292        0.23163        2.78625
C         -3.10791       -1.36560       -0.80175
C         -4.40357       -1.30058       -0.34130
C         -5.41409       -1.94438       -1.03227
C         -5.11767       -2.65881       -2.17569
C         -3.81438       -2.73671       -2.62420
C         -2.80654       -2.09275       -1.93062
H         -1.78571       -2.15230       -2.27112
H         -3.58156       -3.29730       -3.51461
H         -5.90395       -3.15968       -2.71658
H         -6.42959       -1.89082       -0.67569
H         -4.61693       -0.76198        0.56871
Pd        -0.06048       -0.15809       -1.42450
Cl        -1.72787        0.71269       -2.66848
Cl         1.32994       -0.25642       -3.17899
H         -4.14883        1.25672       -0.44356
C         -4.79517        3.85898       -0.14656
H         -4.71801        4.18370       -1.18494
H         -4.99417        4.73790        0.46793
H         -5.65672        3.19502       -0.06455
H         -2.62994        4.94189        1.06733
S         -0.02844        4.17525        2.04358
H          2.69149        4.91992        1.51897
C          4.98782        3.86675        0.54437
H          4.32891        1.32893       -0.08306
H          5.05648        4.29819       -0.45500
H          5.12531        4.67055        1.26874
H          5.81469        3.16586        0.66628
