171
-217.84742095
P         -1.59849        0.42875       -0.31195
P          1.61744       -0.42436       -0.33011
C         -0.87088        1.37352       -1.65525
C          0.87801       -1.34963       -1.68219
C         -0.09200        0.75523       -2.62655
C          0.52655        1.55344       -3.60799
C          0.31367        2.92188       -3.60120
C         -0.48324        3.51258       -2.64371
C         -1.06674        2.73293       -1.66431
C          1.07658       -2.70856       -1.71082
C          0.48044       -3.47848       -2.69016
C         -0.33402       -2.87914       -3.62705
C         -0.55031       -1.51138       -3.61453
C          0.08310       -0.72232       -2.63499
Cl         1.62598        0.32449        2.84827
Cl        -1.61244       -0.39844        2.81425
C         -1.43730       -0.90390       -4.64454
C          1.38900        0.95237       -4.66231
H         -0.64863        4.57742       -2.65767
H         -1.67972        3.18655       -0.90205
H          1.70127       -3.17049       -0.96330
H          0.64805       -4.54270       -2.71852
H          0.78176        3.52669       -4.35951
H         -0.81414       -3.47655       -4.38373
C         -3.90071       -3.27079       -1.51792
C         -2.92371       -3.37657       -0.53505
C         -2.20884       -2.23269       -0.20901
C         -2.46893       -1.04252       -0.84069
C         -3.43517       -0.95313       -1.81196
C         -4.17648       -2.07367       -2.16880
H         -4.48059       -4.13688       -1.77523
H         -1.45374       -2.26554        0.55749
H         -3.61231        0.00180       -2.27689
C         -4.36458        3.03314        2.16657
C         -4.91545        2.07317        1.32565
C         -4.04529        1.29291        0.57782
C         -2.68825        1.47714        0.66217
C         -2.16013        2.43089        1.49672
C         -2.99202        3.22012        2.28094
H         -5.01545        3.65213        2.75475
H         -4.43120        0.52531       -0.06966
H         -1.09071        2.54090        1.54582
C          4.41656       -3.06775        2.06410
C          3.04708       -3.27560        2.17123
C          2.20786       -2.46877        1.41392
C          2.72650       -1.48321        0.61059
C          4.08166       -1.28141        0.52967
C          4.95885       -2.07810        1.25385
H          5.08084       -3.69121        2.63384
H          1.13962       -2.59289        1.45772
H          4.44902       -0.48928       -0.09764
C          3.82670        3.35446       -1.46793
C          2.86716        3.41045       -0.46428
C          2.18353        2.24208       -0.15837
C          2.45693        1.07602       -0.82866
C          3.40860        1.03523       -1.81759
C          4.11817        2.18209       -2.15558
H          4.37926        4.24131       -1.71462
H          1.44229        2.23660        0.62219
H          3.59805        0.09809       -2.31274
Pd         0.01646       -0.03805        1.31429
C         -1.19687       -5.14890       -0.16434
C         -2.61780       -4.68788        0.20231
C         -3.61071       -5.80237       -0.17889
C         -2.71177       -4.45408        1.72298
H         -0.46166       -4.38231        0.07615
H         -0.92717       -6.05720        0.37418
H         -1.12595       -5.35560       -1.23161
H         -3.39459       -6.71737        0.37256
H         -4.63476       -5.50985        0.05265
H         -3.54932       -6.03760       -1.24123
H         -2.52639       -5.37718        2.27181
H         -1.98412       -3.71746        2.06045
H         -3.70278       -4.09201        1.99553
C         -6.65535       -2.24073       -2.44917
C         -5.32453       -2.00334       -3.18598
C         -5.13090       -3.08374       -4.26708
C         -5.38894       -0.62770       -3.87866
H         -6.80502       -1.48981       -1.67343
H         -7.49837       -2.18807       -3.13788
H         -6.67205       -3.22045       -1.97278
H         -4.17244       -2.96181       -4.77002
H         -5.15889       -4.08529       -3.84014
H         -5.91602       -3.02457       -5.02070
H         -6.18992       -0.60421       -4.61745
H         -5.58489        0.16676       -3.15911
H         -4.45647       -0.40277       -4.39487
C         -7.23114        2.79045        2.10340
C         -6.42649        1.82915        1.20814
C         -6.73816        0.38270        1.63653
C         -6.86310        2.03987       -0.25377
H         -7.04890        3.82880        1.82694
H         -8.30086        2.60582        2.00533
H         -6.96935        2.66025        3.15328
H         -7.80778        0.18099        1.58214
H         -6.23026       -0.33824        0.99676
H         -6.41196        0.20671        2.66133
H         -6.35849        1.34314       -0.92195
H         -7.93670        1.88969       -0.36609
H         -6.62655        3.05104       -0.58434
C         -0.89998        4.18952        3.35784
C         -2.43621        4.26723        3.25674
C         -3.01900        4.02136        4.66161
C         -2.82889        5.67131        2.76590
H         -0.52216        4.90602        4.08697
H         -0.57767        3.19628        3.67041
H         -0.43315        4.42017        2.40198
H         -2.78506        3.01272        5.00180
H         -2.60561        4.72542        5.38354
H         -4.10196        4.13611        4.67132
H         -3.91170        5.78181        2.71632
H         -2.44289        6.44093        3.43410
H         -2.42774        5.85637        1.76945
C          2.95488       -5.74036        2.60797
C          2.50341       -4.35898        3.11322
C          0.96329       -4.33572        3.17665
C          3.04513       -4.11833        4.53494
H          2.58641       -5.91944        1.59791
H          4.04155       -5.81584        2.58588
H          2.57655       -6.53440        3.25154
H          0.59936       -3.36403        3.51047
H          0.52864       -4.55235        2.20221
H          0.59229       -5.08608        3.87456
H          2.76354       -3.12677        4.88899
H          2.64551       -4.85275        5.23400
H          4.13157       -4.18889        4.56513
C          7.14413       -3.17970        0.70281
C          6.47994       -1.88005        1.19297
C          7.00060       -1.52614        2.59787
C          6.86597       -0.74116        0.22782
H          8.22510       -3.06160        0.62938
H          6.94517       -4.00753        1.38235
H          6.76705       -3.45655       -0.28157
H          6.52153       -0.61976        2.96766
H          6.79621       -2.32586        3.30878
H          8.07738       -1.35833        2.58450
H          6.43476        0.20732        0.54769
H          7.94790       -0.61492        0.19066
H          6.52380       -0.95294       -0.78500
C          3.50674        5.84116       -0.05528
C          2.54905        4.69321        0.31683
C          2.68578        4.41863        1.82731
C          1.10984        5.13167       -0.00347
H          3.28256        6.73504        0.52674
H          4.54247        5.56682        0.14436
H          3.41492        6.10430       -1.10885
H          3.69355        4.07991        2.06636
H          2.48549        5.31924        2.40739
H          1.98973        3.64969        2.15908
H          0.83133        6.01555        0.57006
H          1.01024        5.37119       -1.06149
H          0.39803        4.34051        0.22710
C          5.35470        0.80429       -3.90355
C          5.24170        2.17218       -3.20223
C          6.57974        2.47146       -2.50151
C          4.96656        3.24800       -4.26991
H          5.59838        0.01633       -3.19129
H          4.42413        0.54035       -4.40445
H          6.14234        0.82003       -4.65674
H          6.56414        3.45001       -2.02282
H          6.78669        1.72726       -1.73287
H          7.40480        2.46009       -3.21350
H          4.00393        3.08052       -4.75095
H          4.95236        4.24641       -3.83487
H          5.73541        3.23497       -5.04228
H         -1.77612        0.08867       -4.34475
H          1.75560       -0.03102       -4.36481
H         -2.32249       -1.51970       -4.80491
H         -0.91905       -0.81113       -5.59983
H          2.25687        1.58163       -4.85973
H          0.83993        0.84057       -5.59811
