111
-148.55678322
P         -1.56499        2.71191        0.93683
P         -0.54990       -0.24859        0.45051
C         -1.28694        1.60786        2.34879
C         -0.92311        0.29529        2.13259
C         -0.36971        4.12330        0.95180
C          0.58910        4.03130       -0.21641
C         -1.41965        2.08322        3.63774
H         -1.66823        3.11951        3.79916
C         -1.21229        1.23355        4.71044
H         -1.31956        1.60312        5.71719
C         -0.86418       -0.08548        4.49201
H         -0.69890       -0.74637        5.32695
C         -0.70966       -0.55288        3.19947
H         -0.40843       -1.57141        3.01550
Pd        -1.59260        1.31970       -0.90838
Cl        -2.40720        3.08952       -2.02320
Cl        -1.66555       -0.17047       -2.57987
C         -1.28399        5.36423        0.92281
C         -3.16584        3.63920        1.03983
H          0.04445        4.02954       -1.16264
H          1.28208        4.87568       -0.23277
H          1.17855        3.11330       -0.17831
H         -1.35543        5.72301       -0.11313
H         -0.82700        6.19003        1.48874
H         -3.56203        3.66172        0.01610
C         -2.71109        5.04961        1.45572
C         -4.16415        2.98561        1.97188
H          0.16535        4.05899        1.90817
H         -2.71917        5.11726        2.55224
H         -3.43524        5.80256        1.10880
H         -5.10933        3.53293        1.98951
H         -4.37365        1.95732        1.66853
H         -3.78703        2.95427        2.99435
C         -0.67503       -4.78156        0.01083
C         -1.65489       -3.99037       -0.64651
C         -1.61724       -2.61734       -0.46657
C         -0.61219       -2.02552        0.25250
C          0.41207       -2.77409        0.77264
C          0.43228       -4.15268        0.63918
O         -0.84015       -6.18753        0.10273
C         -2.73066       -4.56510       -1.58432
H         -2.36905       -1.98733       -0.90962
H          1.20899       -2.26368        1.28756
C          1.66360       -4.90931        1.16540
C          3.59851        1.29932       -0.62291
C          3.15849        1.34255        0.72483
C          1.91051        0.82451        1.02537
C          1.09527        0.33408        0.03976
C          1.47518        0.37949       -1.27538
C          2.70234        0.89955       -1.64713
O          4.94238        1.63196       -0.93985
C          4.01923        1.93113        1.85300
H          1.55363        0.80264        2.03972
H          0.77271        0.03238       -2.01334
C          3.02925        1.03682       -3.14219
C         -4.10336       -4.49102       -0.89642
C         -2.77005       -3.73442       -2.88667
C         -2.43754       -6.02021       -1.98960
C          2.94859       -4.18194        0.70938
C          1.62275       -4.94401        2.70193
C          1.74314       -6.34605        0.62079
C         -1.59488       -6.57830        1.23739
H         -4.88774       -4.86976       -1.55120
H         -4.11663       -5.08042        0.01852
H         -4.35256       -3.46334       -0.63406
H         -3.08610       -2.70878       -2.70496
H         -1.78557       -3.70391       -3.35252
H         -3.46808       -4.16674       -3.60300
H         -1.43934       -6.10612       -2.41751
H         -2.49096       -6.68661       -1.13193
H         -3.15622       -6.37510       -2.72790
H          3.83624       -4.74452        0.99762
H          2.96095       -4.06651       -0.37409
H          3.03501       -3.19206        1.15440
H          0.73667       -5.46502        3.05968
H          2.49762       -5.45479        3.10340
H          1.60437       -3.93541        3.11385
H          1.70468       -6.34693       -0.46796
H          2.66796       -6.83287        0.92946
H          0.91588       -6.95123        0.98419
H         -2.58416       -6.12464        1.20243
H         -1.69583       -7.66378        1.24562
H         -1.09287       -6.25657        2.14847
C          5.82590        0.51807       -0.95492
C          3.13112        2.47220        2.99672
C          4.93288        0.83430        2.41977
C          4.86199        3.11329        1.34101
C          1.74009        1.29442       -3.95697
C          3.96462        2.23231       -3.39853
C          3.67717       -0.26259       -3.64265
H          3.73265        2.99942        3.73682
H          2.38741        3.16981        2.61324
H          2.61278        1.66976        3.51968
H          5.59891        0.44271        1.65478
H          5.54580        1.21893        3.23454
H          4.34306        0.00224        2.80386
H          5.57432        2.79332        0.58434
H          4.22295        3.87633        0.89766
H          5.42658        3.57255        2.15203
H          1.97759        1.52547       -4.99499
H          1.08605        0.42394       -3.96576
H          1.18306        2.13607       -3.54594
H          4.14270        2.36921       -4.46482
H          3.52854        3.15071       -3.00668
H          4.93012        2.09126       -2.91942
H          3.91244       -0.19777       -4.70465
H          3.00570       -1.10839       -3.49639
H          4.59870       -0.47572       -3.10603
H          6.24513        0.39531       -1.95330
H          6.64700        0.69591       -0.26057
H          5.29677       -0.39160       -0.66798
