111
-148.55299750
P         -1.61502        2.73917       -0.32168
P         -0.47978       -0.12309        0.45524
C         -1.74547        2.14160        1.38852
C         -1.31139        0.87255        1.70912
C         -0.41439        4.14322       -0.40572
C          0.79489        3.76255       -1.23294
C         -2.24136        2.96656        2.37789
H         -2.53795        3.97297        2.13209
C         -2.32853        2.50716        3.68074
H         -2.72026        3.15024        4.45187
C         -1.90663        1.22977        3.99545
H         -1.96824        0.87437        5.01087
C         -1.38525        0.41376        3.00776
H         -1.01646       -0.57237        3.24296
Pd        -1.14199        0.83297       -1.54271
Cl        -2.11473        1.78991       -3.31743
Cl        -0.50471       -1.09636       -2.51128
C         -1.24992        5.29656       -0.99707
C         -3.14810        3.58971       -0.91959
H          1.49980        4.59318       -1.31540
H          1.32401        2.91235       -0.79749
H          0.49629        3.47745       -2.24384
H         -1.03622        5.36912       -2.07224
H         -0.93090        6.25896       -0.56935
H         -3.24259        3.32392       -1.98028
C         -2.77634        5.07776       -0.79151
C         -4.39014        3.16577       -0.16494
H         -0.12995        4.36223        0.63189
H         -3.07123        5.43481        0.20465
H         -3.35972        5.68033       -1.50452
H         -5.28236        3.65686       -0.55991
H         -4.54161        2.08587       -0.22941
H         -4.31814        3.42293        0.89194
C         -1.05650       -4.62303        0.88643
C          0.22557       -4.10416        0.56599
C          0.36240       -2.73238        0.43949
C         -0.68822       -1.88635        0.68005
C         -1.89824       -2.37587        1.09828
C         -2.10153       -3.73700        1.26208
O         -1.31328       -6.01210        0.75672
C          1.47432       -4.97347        0.34117
H          1.30202       -2.30840        0.13228
H         -2.69405       -1.67673        1.29387
C         -3.44105       -4.19731        1.86261
C          3.80525        1.39225        0.11885
C          3.31308        0.46118       -0.83102
C          2.00855        0.01961       -0.69853
C          1.23710        0.39163        0.37013
C          1.73994        1.21590        1.34209
C          3.03194        1.70805        1.26518
O          5.05059        2.03993       -0.09859
C          4.14323       -0.03346       -2.02508
H          1.55261       -0.58556       -1.46211
H          1.09422        1.49602        2.15548
C          3.54993        2.61742        2.38989
C          1.79007       -5.02988       -1.16280
C          2.67782       -4.35273        1.08555
C          1.29832       -6.40154        0.88580
C         -3.77332       -3.33009        3.09751
C         -4.55603       -4.03153        0.81704
C         -3.39702       -5.65909        2.34111
C         -1.78016       -6.36623       -0.53445
H          2.69525       -5.60691       -1.35001
H          0.97699       -5.49188       -1.71900
H          1.93923       -4.02913       -1.56655
H          2.44975       -4.22178        2.14293
H          3.55496       -4.99469        1.00806
H          2.95214       -3.38170        0.67701
H          2.22374       -6.97087        0.80190
H          1.00618       -6.37931        1.93509
H          0.52996       -6.94099        0.33714
H         -3.93665       -2.28771        2.82924
H         -4.67956       -3.68412        3.58828
H         -2.96143       -3.36795        3.82329
H         -4.63376       -2.99464        0.49169
H         -4.36438       -4.64151       -0.06349
H         -5.52122       -4.32798        1.22686
H         -2.56849       -5.81252        3.03167
H         -4.32025       -5.93367        2.85083
H         -3.26644       -6.34390        1.50666
H         -2.71027       -5.84426       -0.75219
H         -1.04201       -6.09328       -1.28653
H         -1.95282       -7.44201       -0.57201
C          4.95731        3.24133       -0.85471
C          5.64238       -0.08468       -1.67978
C          3.72575       -1.46919       -2.41864
C          3.90316        0.89386       -3.22619
C          5.06756        2.44944        2.58494
C          3.21506        4.07884        2.05392
C          2.88024        2.25801        3.73609
H          6.22107       -0.49531       -2.50681
H          6.03527        0.90532       -1.46356
H          5.81254       -0.70945       -0.80357
H          4.38984       -1.86892       -3.18457
H          3.77101       -2.13433       -1.55695
H          2.71581       -1.50068       -2.82434
H          2.84735        0.90807       -3.49613
H          4.20023        1.91556       -3.00188
H          4.46950        0.56140       -4.09567
H          5.42342        3.04710        3.42378
H          5.31584        1.40699        2.78149
H          5.61863        2.76226        1.70169
H          3.56510        4.74989        2.83784
H          3.67682        4.38502        1.11845
H          2.13854        4.21299        1.95102
H          3.33895        2.81060        4.55575
H          2.98504        1.19459        3.94953
H          1.81984        2.50634        3.73859
H          5.35082        4.07275       -0.27014
H          5.55443        3.15144       -1.76196
H          3.91992        3.44410       -1.12208
