111
-148.55763445
P         -2.24487        2.24498        1.32847
P          0.08358        0.25144        0.47949
C         -1.17305        1.51953        2.59258
C         -0.18658        0.63213        2.22261
C         -2.39488        4.07616        1.53004
C         -1.61982        4.79905        0.45003
C         -1.36488        1.82452        3.92469
H         -2.13801        2.52180        4.20452
C         -0.57079        1.22730        4.88850
H         -0.71976        1.46340        5.92950
C          0.40485        0.32183        4.51791
H          1.01739       -0.15032        5.26829
C          0.59465        0.02049        3.18105
H          1.34432       -0.69352        2.87708
Pd        -1.53553        1.42023       -0.70789
Cl        -3.27208        2.55649       -1.56985
Cl        -0.83419        0.50800       -2.63147
C         -3.91706        4.30645        1.48886
C         -4.01994        1.74732        1.52529
H         -1.99020        4.52522       -0.53965
H         -1.71213        5.88319        0.54951
H         -0.55790        4.54322        0.48454
H         -4.20929        4.54062        0.45590
H         -4.18719        5.19415        2.08080
H         -4.36402        1.46339        0.52187
C         -4.70054        3.05400        1.97415
C         -4.18184        0.59249        2.49191
H         -1.99542        4.31387        2.52457
H         -4.76139        3.06283        3.07104
H         -5.74272        3.08247        1.62160
H         -3.83811        0.86941        3.48962
H         -5.22714        0.28681        2.57730
H         -3.59918       -0.27582        2.17786
C         -1.07315       -4.08512       -0.28430
C         -2.07640       -3.08956       -0.16302
C         -1.68109       -1.79069        0.10896
C         -0.35444       -1.45332        0.16444
C          0.62048       -2.39023       -0.05687
C          0.29478       -3.71093       -0.31687
O         -1.43547       -5.45732       -0.33975
C         -3.57474       -3.39169       -0.32346
H         -2.41170       -1.01829        0.27384
H          1.64785       -2.07260       -0.02096
C          1.42005       -4.71732       -0.60461
C          4.39607        0.87906       -0.87235
C          4.03524        1.20507        0.46210
C          2.72030        1.01152        0.85201
C          1.76744        0.59437       -0.04201
C          2.08841        0.41856       -1.36282
C          3.38229        0.58931       -1.82271
O          5.76295        0.76114       -1.23317
C          5.02160        1.76435        1.50119
H          2.43021        1.17869        1.87392
H          1.30101        0.14948       -2.04456
C          3.62761        0.47157       -3.33648
C         -4.31721       -2.16172       -0.89653
C         -3.80330       -4.55084       -1.31042
C         -4.17669       -3.73497        1.04717
C          2.63003       -4.01306       -1.26020
C          1.87974       -5.35587        0.71455
C          0.95004       -5.80646       -1.58588
C         -1.55519       -6.07672        0.93458
H         -3.83242       -1.80518       -1.80506
H         -5.34855       -2.41217       -1.14349
H         -4.35124       -1.34040       -0.18263
H         -3.34104       -4.33138       -2.27228
H         -3.37525       -5.47865       -0.93933
H         -4.86679       -4.72131       -1.47580
H         -5.24364       -3.94044        0.96432
H         -3.69834       -4.61051        1.47971
H         -4.04550       -2.90762        1.74409
H          2.31827       -3.45029       -2.13923
H          3.12334       -3.32919       -0.57099
H          3.37671       -4.74089       -1.57694
H          2.24200       -4.59469        1.40520
H          1.06330       -5.88329        1.20207
H          2.68630       -6.06838        0.54348
H          0.14871       -6.40506       -1.15972
H          0.57880       -5.35827       -2.50691
H          1.76574       -6.48223       -1.84167
H         -2.56956       -6.45323        1.06504
H         -0.86834       -6.92072        0.99581
H         -1.32672       -5.36348        1.72753
C          6.26750       -0.55025       -1.04290
C          5.35040        0.67325        2.53333
C          6.32368        2.27144        0.85692
C          4.37797        2.96780        2.22493
C          5.01062        1.00306       -3.75052
C          3.49451       -0.99990       -3.76200
C          2.57507        1.31328       -4.09177
H          5.82016       -0.18686        2.05999
H          6.03185        1.05087        3.29522
H          4.44718        0.32533        3.03373
H          6.10754        2.99575        0.07236
H          6.96697        2.75036        1.59474
H          6.88636        1.45474        0.41075
H          3.50693        2.67230        2.80741
H          5.08533        3.43120        2.91224
H          4.06280        3.72419        1.50668
H          5.80831        0.39159       -3.33556
H          5.12402        1.00128       -4.83435
H          5.15239        2.02305       -3.39502
H          2.50028       -1.38177       -3.53272
H          3.65657       -1.11168       -4.83370
H          4.21993       -1.62570       -3.24524
H          1.56682        0.93118       -3.94218
H          2.76842        1.30625       -5.16406
H          2.59579        2.34853       -3.75282
H          7.31204       -0.58222       -1.35342
H          6.19574       -0.82933        0.00707
H          5.69333       -1.26156       -1.63482
