111
-148.55510334
P         -2.36201        2.36058        0.69707
P          0.02518        0.28449        0.49252
C         -1.38110        1.97331        2.16680
C         -0.36544        1.04683        2.08024
C         -2.41995        4.18131        0.38572
C         -1.56894        4.54519       -0.81157
C         -1.65826        2.58515        3.37217
H         -2.44698        3.31802        3.42733
C         -0.92364        2.25204        4.49713
H         -1.13957        2.72730        5.44005
C          0.08040        1.30630        4.41377
H          0.64746        1.04125        5.29091
C          0.35923        0.70036        3.20166
H          1.13510       -0.04518        3.12198
Pd        -1.60828        0.99266       -1.00099
Cl        -3.24003        1.88050       -2.26116
Cl        -0.84959       -0.46419       -2.53107
C         -3.92470        4.45886        0.21070
C         -4.17011        2.00707        0.90428
H         -0.52501        4.26037       -0.65810
H         -1.92073        4.02805       -1.70632
H         -1.60270        5.61821       -1.01475
H         -4.16615        4.42540       -0.86065
H         -4.16681        5.48196        0.53620
H         -4.48081        1.49539       -0.01643
C         -4.79317        3.41389        0.96697
C         -4.44938        1.13992        2.11382
H         -2.04176        4.66310        1.29691
H         -4.89083        3.71154        2.01997
H         -5.81945        3.39539        0.56983
H         -3.91247        0.19111        2.05562
H         -4.13290        1.63702        3.03176
H         -5.51522        0.92053        2.20968
C         -0.75466       -4.19593        0.66013
C         -1.82817       -3.27411        0.78701
C         -1.53344       -1.92068        0.77616
C         -0.25512       -1.47835        0.55882
C          0.76343       -2.36036        0.31060
C          0.54095       -3.72714        0.31428
O         -0.96010       -5.56942        0.94945
C         -3.30644       -3.68495        0.89388
H         -2.30945       -1.18981        0.92956
H          1.74449       -1.96708        0.10735
C          1.70709       -4.64785       -0.08350
C          4.27298        1.09312       -0.96282
C          3.28552        0.61156       -1.86192
C          2.01368        0.38130       -1.36876
C          1.68108        0.68159       -0.07401
C          2.59718        1.27238        0.75765
C          3.89038        1.52975        0.33350
O          5.64304        1.06073       -1.32933
C          3.53330        0.34802       -3.35690
H          1.25386       -0.04474       -2.00021
H          2.29512        1.52699        1.75776
C          4.83044        2.27464        1.29634
C         -3.53258       -5.15679        0.50747
C         -3.80222       -3.44802        2.32964
C         -4.14633       -2.82819       -0.08055
C          2.40791       -4.07837       -1.33751
C          2.72127       -4.71687        1.06966
C          1.23242       -6.06742       -0.43920
C         -0.76652       -5.87775        2.31952
H         -3.12490       -5.36078       -0.48202
H         -3.04794       -5.82808        1.21250
H         -4.59440       -5.40155        0.49569
H         -3.24727       -4.05518        3.04234
H         -3.68036       -2.40416        2.61680
H         -4.85796       -3.70103        2.42365
H         -3.75807       -2.90930       -1.09543
H         -5.18536       -3.15624       -0.09030
H         -4.14241       -1.77551        0.19668
H          3.17753       -4.76098       -1.69692
H          1.68985       -3.92661       -2.14291
H          2.89251       -3.12536       -1.13225
H          2.26829       -5.13206        1.96785
H          3.57229       -5.34296        0.80270
H          3.09845       -3.72457        1.31550
H          2.05692       -6.67679       -0.80852
H          0.81360       -6.57169        0.42856
H          0.46260       -6.03296       -1.20931
H         -1.43464       -5.27806        2.93562
H         -0.97622       -6.93500        2.48309
H          0.26169       -5.66637        2.60823
C          6.26588       -0.17334       -1.01346
C          2.39889        0.99320       -4.18411
C          4.85507        0.96198       -3.84931
C          3.54240       -1.16770       -3.61498
C          4.08824        3.48298        1.90950
C          5.26246        1.32455        2.42537
C          6.07713        2.82783        0.58411
H          1.43439        0.53217       -3.97839
H          2.31781        2.05668       -3.96146
H          2.58757        0.88640       -5.25193
H          5.71118        0.48233       -3.38093
H          4.96325        0.84881       -4.92775
H          4.89676        2.02457       -3.61263
H          3.70300       -1.38182       -4.67122
H          4.33193       -1.65879       -3.04916
H          2.59357       -1.61677       -3.32358
H          4.75829        4.07441        2.53300
H          3.69787        4.13205        1.12615
H          3.25430        3.17166        2.53634
H          5.80547        0.46735        2.03202
H          5.91101        1.83491        3.13696
H          4.39700        0.94823        2.97003
H          5.79122        3.45023       -0.26308
H          6.70641        2.02379        0.20978
H          6.68147        3.43100        1.26124
H          6.24436       -0.33812        0.06249
H          5.74298       -0.99293       -1.50402
H          7.30148       -0.15081       -1.35336
