59
-75.79797689
Cl         1.55048        1.16172        2.26818
P          1.64159        0.14175       -0.77033
P         -1.50570       -0.17057       -0.81329
C          0.69465        0.51891       -2.30715
H          0.39591        1.56962       -2.27818
H          1.35336        0.38356       -3.17033
C         -0.50740       -0.38271       -2.35941
H         -0.19580       -1.42776       -2.42534
H         -1.14574       -0.17892       -3.22500
C          2.32662       -1.57690       -0.86968
H          2.13022       -1.93229       -1.88831
C          3.21872        1.09559       -0.58653
H          3.31040        1.32587        0.48195
C         -2.39653       -1.69321       -0.23543
H         -1.93652       -1.98935        0.71580
C         -2.94433        0.95730       -1.11381
H         -2.86059        1.31586       -2.14744
C          3.83793       -1.38006       -0.64937
H          4.07157       -1.58807        0.40368
H          4.41104       -2.11878       -1.22978
C          4.28605        0.06595       -0.99735
H          4.45906        0.14809       -2.07943
H          5.25098        0.30455       -0.52417
C         -3.83385       -1.17983       -0.01678
H         -4.55502       -1.99349       -0.17571
H         -3.96205       -0.87240        1.03176
C         -4.15904        0.02241       -0.94429
H         -5.01318        0.59335       -0.55163
H         -4.48191       -0.35366       -1.92638
C          1.65615       -2.49065        0.14924
H          0.56621       -2.42372        0.03129
H          1.85858       -2.10421        1.15730
C          3.23963        2.38586       -1.39741
H          4.26744        2.77376       -1.42758
H          2.98794        2.15520       -2.44056
C         -2.28405       -2.83738       -1.23816
H         -2.75472       -2.52795       -2.18058
H         -1.22618       -3.00103       -1.48145
C         -2.95070        2.14328       -0.15592
H         -3.91662        2.66222       -0.23021
H         -2.90591        1.76348        0.87297
C          2.10308       -3.94019        0.03691
H          1.88426       -4.34359       -0.95364
H          1.60577       -4.57984        0.76964
H          3.17885       -4.03722        0.19355
C          2.30224        3.44680       -0.84251
H          2.57430        3.71745        0.17948
H          1.27368        3.08851       -0.81105
H          2.31446        4.36087       -1.44045
C         -2.89169       -4.14158       -0.74010
H         -2.76200       -4.95336       -1.45964
H         -3.96189       -4.04436       -0.55251
H         -2.42870       -4.45759        0.19671
C         -1.81826        3.12536       -0.40928
H         -1.83825        3.96449        0.28977
H         -0.84760        2.64124       -0.30846
H         -1.86835        3.53573       -1.41962
Cl        -1.65482        0.20547        2.35121
Pd         0.01611        0.33404        0.86283
