75
-122.81804488
P          1.83978       -0.56346        0.00416
C          3.16462       -1.27733       -0.98272
C          4.42877       -1.32745       -0.44041
C          5.46558       -1.89150       -1.16184
C          5.22569       -2.41032       -2.41859
C          3.95272       -2.37199       -2.95186
C          2.91845       -1.80790       -2.22802
H          1.92049       -1.77410       -2.63396
H          3.76439       -2.77922       -3.93164
H          6.03255       -2.84876       -2.98289
H          6.45722       -1.92780       -0.74162
H          4.59636       -0.93481        0.55047
C          1.69855       -1.58361        1.47620
C          1.70884       -1.01637        2.72973
C          1.68856       -1.82497        3.85095
C          1.65822       -3.19800        3.70762
C          1.64397       -3.76319        2.44778
C          1.66662       -2.95125        1.32788
H          1.67354       -3.37698        0.33670
H          1.61677       -4.83456        2.33585
H          1.63852       -3.82955        4.58072
H          1.69192       -1.38319        4.83377
H          1.72592        0.05673        2.82516
C          2.21591        1.14002        0.45164
C          3.37656        1.79014        0.10271
C          3.54316        3.13855        0.38658
C          2.50904        3.82137        1.02570
C          1.33408        3.18664        1.36238
C          1.18501        1.81859        1.08422
O         -0.00386        1.13809        1.39547
C         -1.19345        1.81535        1.07912
C         -1.34604        3.18386        1.35308
C         -2.51908        3.81631        1.00575
C         -3.55334        3.12708        0.37353
C         -3.37790        1.78127        0.08276
C         -2.21973        1.13289        0.44295
P         -1.83544       -0.57272        0.00881
C         -1.69669       -1.57897        1.49290
C         -1.61418       -0.99700        2.73700
C         -1.59759       -1.79021        3.86906
C         -1.66222       -3.16397        3.74659
C         -1.73896       -3.74509        2.49637
C         -1.75844       -2.94790        1.36591
H         -1.83618       -3.38571        0.38312
H         -1.78584       -4.81732        2.40027
H         -1.64515       -3.78396        4.62800
H         -1.52826       -1.33618        4.84383
H         -1.55277        0.07553        2.81657
C         -3.15196       -1.30738       -0.97459
C         -2.88676       -1.88817       -2.19327
C         -3.91192       -2.47216       -2.91433
C         -5.19480       -2.48068       -2.40402
C         -5.45368       -1.91253       -1.17262
C         -4.42601       -1.32857       -0.45404
H         -4.60855       -0.89941        0.51883
H         -6.45304       -1.92614       -0.76970
H         -5.99459       -2.93460       -2.96613
H         -3.70872       -2.91845       -3.87391
H         -1.88068       -1.87837       -2.58026
Pd         0.00160       -0.00446       -1.37973
Cl        -1.61232        0.83968       -2.71247
Cl         1.57627        0.91197       -2.70943
H         -4.14122        1.24797       -0.45533
C         -4.79340        3.83404       -0.04320
H         -4.69782        4.21256       -1.06162
H         -5.00452        4.67957        0.61272
H         -5.65538        3.16633       -0.01159
H         -2.62833        4.86593        1.21427
S         -0.00942        4.05652        2.12778
H          2.62033        4.86769        1.24922
C          4.80746        3.83593        0.02986
H          4.14981        1.25487       -0.41908
H          5.24971        3.40939       -0.87143
H          4.63268        4.89610       -0.15770
H          5.53712        3.75163        0.83614
