111
-148.55016565
P         -2.53383        2.12281        0.88747
P          0.12090        0.40989        0.50526
C         -1.44464        1.79630        2.30453
C         -0.27787        1.08560        2.12525
C         -3.37818        3.75976        1.08982
C         -3.19834        4.63635       -0.12965
C         -1.78497        2.24648        3.56462
H         -2.70635        2.78678        3.70708
C         -0.95000        1.99000        4.63857
H         -1.21632        2.34186        5.62189
C          0.22180        1.28212        4.45278
H          0.87086        1.08061        5.28901
C          0.55705        0.82460        3.19116
H          1.46086        0.25791        3.02917
Pd        -1.30102        1.48420       -0.97072
Cl        -2.99017        2.29897       -2.19556
Cl         0.10964        0.87411       -2.61017
C         -4.84330        3.36100        1.36465
C         -4.00101        0.99614        0.83412
H         -3.66288        4.17806       -1.00356
H         -3.65898        5.61729        0.00917
H         -2.14089        4.78708       -0.35893
H         -5.51474        4.13745        0.96985
H         -5.02756        3.33470        2.44872
H         -3.91241        0.40307       -0.08666
C         -5.19003        1.97509        0.75117
C         -4.02652        0.08934        2.04515
H         -2.92621        4.24086        1.96757
H         -6.06361        1.53566        1.25439
H         -5.48873        2.10872       -0.29904
H         -4.09152        0.67511        2.96396
H         -4.88310       -0.58860        2.02215
H         -3.11830       -0.51457        2.10372
C         -1.17566       -3.94080        0.13555
C         -1.13472       -3.33699        1.41911
C         -0.73145       -2.01502        1.51062
C         -0.45256       -1.28410        0.38585
C         -0.60285       -1.83150       -0.86039
C         -0.99889       -3.14611       -1.02543
O         -1.34950       -5.34525        0.01576
C         -1.47676       -4.10743        2.70403
H         -0.61322       -1.54034        2.46842
H         -0.38586       -1.20939       -1.71115
C         -1.18950       -3.68880       -2.44973
C          4.50169        0.72986       -0.69333
C          3.82966       -0.51530       -0.78520
C          2.49837       -0.56749       -0.41132
C          1.85841        0.53177        0.09798
C          2.52957        1.71188        0.28156
C          3.86611        1.83220       -0.06505
O          5.79320        0.88281       -1.26412
C          4.49851       -1.78945       -1.32419
H          1.93301       -1.47437       -0.53255
H          1.98702        2.54626        0.69175
C          4.59290        3.15808        0.20990
C         -2.04473       -3.15469        3.78035
C         -2.55372       -5.17547        2.43983
C         -0.20276       -4.76542        3.25503
C         -1.68078       -2.56795       -3.39517
C          0.15414       -4.21890       -2.97338
C         -2.25215       -4.80175       -2.48460
C         -0.13060       -6.07808        0.00440
H         -2.38776       -3.71526        4.64967
H         -1.29504       -2.44768        4.13222
H         -2.89282       -2.59245        3.39145
H         -2.19660       -5.93717        1.75118
H         -2.84387       -5.67633        3.36310
H         -3.44424       -4.72282        2.00495
H         -0.41147       -5.31095        4.17498
H          0.22070       -5.46517        2.53850
H          0.55579       -4.01380        3.47254
H         -1.94343       -2.97293       -4.37207
H         -2.56393       -2.07655       -2.98780
H         -0.91461       -1.81184       -3.55921
H          0.53570       -5.01856       -2.34278
H          0.05279       -4.60719       -3.98644
H          0.90070       -3.42520       -2.98970
H         -1.94261       -5.66520       -1.90137
H         -3.19592       -4.44341       -2.07489
H         -2.43172       -5.14039       -3.50467
H         -0.13387       -6.80410        0.81729
H         -0.03704       -6.62050       -0.93620
H          0.71969       -5.40488        0.12141
C          5.77812        1.30026       -2.62357
C          6.00041       -1.81327       -0.98830
C          3.87272       -3.04920       -0.68110
C          4.29163       -1.86425       -2.84468
C          6.08761        2.92432        0.49561
C          4.42400        4.09002       -0.99959
C          4.00177        3.85523        1.45647
H          6.46102       -2.74422       -1.31792
H          6.52872       -0.99582       -1.47237
H          6.15453       -1.72017        0.08621
H          2.84379       -3.20037       -1.00425
H          4.42894       -3.94337       -0.96156
H          3.88357       -2.97575        0.40605
H          4.73903       -2.76867       -3.25613
H          3.22944       -1.87122       -3.08832
H          4.73899       -1.00953       -3.34613
H          6.59710        2.50787       -0.36966
H          6.58775        3.85730        0.75430
H          6.21556        2.22942        1.32489
H          3.36900        4.28306       -1.19256
H          4.91682        5.04658       -0.82767
H          4.84866        3.65015       -1.89866
H          4.59537        4.72733        1.72981
H          3.98952        3.17787        2.31002
H          2.98530        4.20374        1.28018
H          6.27825        0.55456       -3.24128
H          4.75181        1.43052       -2.96938
H          6.31814        2.24166       -2.72323
