111
-148.55118829
P         -2.65036        1.97186       -0.47966
P          0.05850        0.57042        0.33741
C         -1.90371        2.33746        1.12976
C         -0.70816        1.74399        1.47116
C         -3.28350        3.50990       -1.29336
C         -2.55843        3.78367       -2.59277
C         -2.51830        3.20541        2.00944
H         -3.44897        3.67338        1.73306
C         -1.93566        3.46820        3.23723
H         -2.41578        4.14394        3.92608
C         -0.74072        2.86538        3.58066
H         -0.28841        3.06780        4.53755
C         -0.12534        1.99940        2.69463
H          0.80477        1.51699        2.94954
Pd        -1.11683        0.70540       -1.65739
Cl        -2.51563        0.62986       -3.40599
Cl         0.54581       -0.44214       -2.64092
C         -4.79385        3.23249       -1.45889
C         -4.20570        0.97386       -0.40335
H         -1.48010        3.86662       -2.43703
H         -2.72707        2.97539       -3.30548
H         -2.90560        4.70906       -3.05847
H         -5.14264        3.66581       -2.40737
H         -5.35887        3.75440       -0.67275
H         -3.95517       -0.03574       -0.75713
C         -5.11941        1.71247       -1.40245
C         -4.76051        0.92704        1.00386
H         -3.10871        4.32976       -0.58344
H         -6.17266        1.54975       -1.12996
H         -4.99953        1.27784       -2.40597
H         -4.03030        0.52016        1.70571
H         -5.02190        1.92918        1.34785
H         -5.66391        0.31497        1.05918
C         -1.20056       -3.70002        1.29153
C         -0.09655       -3.46169        0.43375
C          0.24992       -2.14885        0.16354
C         -0.39908       -1.10586        0.76870
C         -1.40497       -1.33129        1.67105
C         -1.80473       -2.61981        1.98523
O         -1.72603       -5.01257        1.42829
C          0.69602       -4.59082       -0.24276
H          1.01720       -1.91796       -0.55498
H         -1.87906       -0.48014        2.12631
C         -2.89986       -2.83001        3.04286
C          4.58578        1.02640        0.11666
C          3.77379        1.54234       -0.92553
C          2.39881        1.42776       -0.80377
C          1.83615        0.75140        0.24639
C          2.62068        0.15417        1.19875
C          4.00188        0.24848        1.14859
O          5.97773        1.30852        0.14338
C          4.35725        2.21176       -2.18031
H          1.74347        1.85436       -1.54345
H          2.13345       -0.39571        1.98557
C          4.84559       -0.46717        2.21538
C          0.06400       -4.90391       -1.60757
C          2.16529       -4.16560       -0.46756
C          0.72752       -5.85471        0.63537
C         -2.89168       -1.68031        4.07616
C         -4.27365       -2.86194        2.35613
C         -2.66839       -4.13606        3.82458
C         -2.72890       -5.33825        0.47380
H          0.61009       -5.69629       -2.11867
H         -0.97000       -5.22248       -1.50026
H          0.07284       -4.02101       -2.24645
H          2.24839       -3.36809       -1.20423
H          2.61419       -3.82149        0.46317
H          2.75833       -5.00268       -0.83513
H          1.13815       -5.62789        1.61872
H         -0.26851       -6.26570        0.77770
H          1.34256       -6.63162        0.18191
H         -3.20491       -0.73624        3.63366
H         -3.57869       -1.89194        4.89522
H         -1.89673       -1.54722        4.50022
H         -4.44976       -1.94080        1.80224
H         -4.34430       -3.68766        1.65273
H         -5.07348       -2.97499        3.08752
H         -1.67967       -4.13928        4.28219
H         -3.40879       -4.25604        4.61508
H         -2.73789       -5.00493        3.17474
H         -3.63765       -5.64597        0.99091
H         -2.94367       -4.47771       -0.16112
H         -2.39236       -6.17042       -0.14408
C          6.31261        2.52275        0.80328
C          5.72988        1.61477       -2.54062
C          3.43394        1.97721       -3.39851
C          4.48181        3.72395       -1.94204
C          6.17576       -0.96542        1.62158
C          5.11331        0.49509        3.38236
C          4.10404       -1.70742        2.76326
H          6.46398        1.80756       -1.76248
H          5.65604        0.53546       -2.66961
H          6.11227        2.04197       -3.46730
H          3.90659        2.32649       -4.31613
H          3.21237        0.91697       -3.51807
H          2.49156        2.51384       -3.30075
H          5.13769        3.93850       -1.10175
H          4.88551        4.22561       -2.82115
H          3.50798        4.16059       -1.72165
H          6.74805       -1.52775        2.35896
H          5.99428       -1.61465        0.76563
H          6.79523       -0.13696        1.28669
H          5.69872        0.00929        4.16261
H          5.66032        1.37413        3.05089
H          4.17671        0.83440        3.82431
H          3.22320       -1.42874        3.33985
H          4.75024       -2.28341        3.42529
H          3.79108       -2.36141        1.95048
H          5.41677        2.99710        1.20592
H          7.01080        2.31554        1.61415
H          6.79904        3.19995        0.10159
