111
-148.55057349
P         -2.52856        2.14009        0.73454
P          0.12606        0.42688        0.46779
C         -1.47289        1.86874        2.18745
C         -0.30078        1.15691        2.05683
C         -3.39847        3.77082        0.87602
C         -3.20328        4.62160       -0.35915
C         -1.84106        2.36003        3.42420
H         -2.76755        2.89998        3.52967
C         -1.02741        2.14413        4.52315
H         -1.31503        2.52851        5.48812
C          0.15025        1.43490        4.38601
H          0.78266        1.26492        5.24178
C          0.51249        0.93504        3.14829
H          1.42055        0.36539        3.02525
Pd        -1.26021        1.44799       -1.08088
Cl        -2.84865        2.30592       -2.40432
Cl         0.14095        0.73503       -2.68732
C         -4.86432        3.35982        1.12776
C         -3.98070        0.99377        0.67701
H         -2.14308        4.77716       -0.57170
H         -3.64706        4.13952       -1.23099
H         -3.67540        5.60097       -0.25131
H         -5.53628        4.11733        0.69857
H         -5.07309        3.35797        2.20769
H         -3.86419        0.37788       -0.22552
C         -5.17935        1.95486        0.54146
C         -4.02318        0.11871        1.91061
H         -2.97293        4.27928        1.75151
H         -6.05915        1.51687        1.03499
H         -5.45471        2.05843       -0.51848
H         -3.11033       -0.47357        2.00445
H         -4.11413        0.72758        2.81206
H         -4.87187       -0.56905        1.88699
C         -1.22402       -3.92144        0.26379
C         -1.15690       -3.27176        1.52349
C         -0.72966       -1.95476        1.56131
C         -0.45264       -1.26940        0.40765
C         -0.62714       -1.86017       -0.81548
C         -1.04531       -3.17343       -0.92739
O         -1.43018       -5.32515        0.19800
C         -1.50343       -3.98666        2.83910
H         -0.59663       -1.44626        2.49960
H         -0.41632       -1.27275       -1.69176
C         -1.26059       -3.76591       -2.32829
C          4.53915        0.72331       -0.62568
C          3.81530       -0.46615       -0.90293
C          2.47549       -0.50924       -0.55913
C          1.87256        0.53340        0.09389
C          2.59446        1.63742        0.46535
C          3.94323        1.74312        0.16430
O          5.82006        0.92415       -1.20111
C          4.42224       -1.71276       -1.56840
H          1.87810       -1.36591       -0.81794
H          2.08795        2.42680        0.99472
C          4.71218        2.95195        0.72460
C         -0.24144       -4.65976        3.39929
C         -2.03190       -2.98186        3.88798
C         -2.61220       -5.03300        2.62430
C         -2.35041       -4.85272       -2.31161
C         -1.73167       -2.67135       -3.31398
C          0.06527       -4.34924       -2.84052
C         -0.22888       -6.08647        0.20361
H          0.15387       -5.39655        2.70427
H          0.54010       -3.92231        3.58086
H         -0.45394       -5.16570        4.34075
H         -1.25853       -2.28468        4.20670
H         -2.86877       -2.40951        3.48965
H         -2.37961       -3.50239        4.78003
H         -3.49537       -4.57105        2.18421
H         -2.28440       -5.82733        1.95827
H         -2.90453       -5.49371        3.56758
H         -2.05729       -5.70000       -1.69699
H         -3.28178       -4.45532       -1.90962
H         -2.54650       -5.22658       -3.31621
H         -2.59886       -2.14195       -2.92015
H         -0.94804       -1.94221       -3.51389
H         -2.01251       -3.10804       -4.27198
H         -0.05344       -4.77240       -3.83761
H          0.83149       -3.57613       -2.89135
H          0.43150       -5.13414       -2.18300
H          0.63785       -5.42984        0.28997
H         -0.24250       -6.78303        1.04178
H         -0.15614       -6.66427       -0.71754
C          5.75892        1.55642       -2.46878
C          3.93039       -1.80306       -3.02265
C          5.96024       -1.69784       -1.54240
C          3.96920       -2.97840       -0.80542
C          6.23744        2.76545        0.64418
C          4.30775        4.21863       -0.04738
C          4.35988        3.13535        2.21773
H          2.84217       -1.83739       -3.06356
H          4.25534       -0.94172       -3.60265
H          4.31398       -2.69952       -3.50907
H          6.36891       -2.62938       -1.93329
H          6.35680       -0.88563       -2.14697
H          6.32600       -1.56608       -0.52470
H          4.45423       -3.86786       -1.20679
H          4.22620       -2.90325        0.25077
H          2.89452       -3.13611       -0.88055
H          6.53670        1.83512        1.12562
H          6.57704        2.73056       -0.38818
H          6.76009        3.58616        1.13493
H          4.82354        5.09488        0.34452
H          4.55215        4.13043       -1.10415
H          3.23583        4.39711        0.03132
H          4.94728        3.93993        2.65941
H          4.56660        2.22271        2.77605
H          3.30988        3.38576        2.35914
H          5.15811        0.96137       -3.15438
H          5.30713        2.54230       -2.37369
H          6.76788        1.65915       -2.86871
