171
-217.83398386
P         -1.46143        0.21115       -0.33417
P          1.74644       -0.68516       -0.09055
C         -0.67543        0.88827       -1.80861
C          1.02343       -1.82516       -1.29779
C          0.04099        0.04278       -2.64620
C          0.65294        0.57725       -3.79740
C          0.50014        1.92386       -4.08155
C         -0.20374        2.75086       -3.23345
C         -0.78125        2.22871       -2.09336
C          1.22762       -3.16635       -1.07274
C          0.59866       -4.11441       -1.85503
C         -0.26883       -3.71165       -2.84674
C         -0.49626       -2.36871       -3.09182
C          0.18577       -1.40202       -2.32786
Cl         1.25528       -0.66601        3.19192
Cl        -1.81339       -1.25997        2.61339
C         -1.47331       -1.98457       -4.14774
C          1.44966       -0.28613       -4.71265
H         -0.29850        3.80082       -3.45734
H         -1.29893        2.88114       -1.41218
H          1.88399       -3.47933       -0.27820
H          0.76989       -5.16348       -1.67631
H          0.94469        2.32423       -4.97667
H         -0.78453       -4.44535       -3.44331
C         -4.50162       -2.91984       -1.56030
C         -3.54470       -3.25540       -0.60927
C         -2.62122       -2.28497       -0.24686
C         -2.65992       -1.03415       -0.80897
C         -3.60804       -0.72115       -1.75096
C         -4.55273       -1.65984       -2.14635
H         -5.23002       -3.65440       -1.84441
H         -1.87402       -2.50405        0.49546
H         -3.61041        0.26312       -2.18585
C         -3.71638        3.56528        1.78849
C         -3.87488        3.38750        0.42056
C         -3.19710        2.33553       -0.18307
C         -2.35395        1.52673        0.54131
C         -2.21878        1.72331        1.89524
C         -2.90250        2.73695        2.54958
H         -4.25113        4.36415        2.26684
H         -3.31732        2.14886       -1.23531
H         -1.59836        1.06220        2.46975
C          5.26523       -2.53181        2.10348
C          3.99417       -3.04850        2.32231
C          2.93161       -2.47465        1.63614
C          3.13823       -1.42850        0.77183
C          4.40157       -0.92888        0.57267
C          5.49409       -1.46974        1.23666
H          6.09145       -2.96615        2.63417
H          1.92382       -2.81544        1.80135
H          4.53812       -0.09838       -0.09684
C          2.85417        3.51642       -1.35302
C          1.91103        3.34993       -0.34699
C          1.58318        2.05205        0.02347
C          2.15111        0.97932       -0.62261
C          3.06709        1.16216       -1.62914
C          3.44907        2.44408       -2.00606
H          3.14707        4.51357       -1.62559
H          0.87840        1.87013        0.81518
H          3.48418        0.29461       -2.11173
Pd        -0.05881       -0.59675        1.37237
C         -3.73497       -4.42796        1.59428
C         -3.50022       -4.62428        0.08475
C         -2.12130       -5.26989       -0.14207
C         -4.58002       -5.57747       -0.46162
H         -2.96473       -3.79608        2.03504
H         -4.69869       -3.95257        1.77506
H         -3.72439       -5.38290        2.11920
H         -1.32193       -4.65301        0.26682
H         -2.06418       -6.24746        0.33621
H         -1.93192       -5.40406       -1.20650
H         -5.57951       -5.17783       -0.29134
H         -4.45048       -5.74410       -1.53090
H         -4.52524       -6.54730        0.03278
C         -6.52227       -2.45309       -3.55306
C         -5.64088       -1.25466       -3.15190
C         -4.99048       -0.68611       -4.42781
C         -6.53419       -0.17937       -2.50686
H         -7.05587       -2.85550       -2.69229
H         -7.26790       -2.15471       -4.28998
H         -5.92230       -3.24978       -3.99270
H         -4.38200        0.19079       -4.21072
H         -4.35184       -1.43089       -4.90116
H         -5.74984       -0.38969       -5.15123
H         -5.95388        0.70161       -2.23574
H         -7.32357        0.13531       -3.18920
H         -7.00253       -0.56114       -1.59988
C         -4.25813        5.78744       -0.19437
C         -4.76950        4.34605       -0.37795
C         -6.21649        4.23471        0.13448
C         -4.75571        4.01803       -1.88435
H         -4.85687        6.49045       -0.77325
H         -4.30168        6.09505        0.84965
H         -3.22304        5.87273       -0.52533
H         -6.88041        4.89404       -0.42438
H         -6.58456        3.21442        0.02722
H         -6.28502        4.50593        1.18736
H         -5.38120        4.71803       -2.43814
H         -3.74664        4.08424       -2.29108
H         -5.13963        3.01604       -2.07248
C         -3.29220        1.56964        4.72920
C         -2.77287        2.86398        4.07490
C         -3.58918        4.05161        4.61911
C         -1.29559        3.07371        4.45566
H         -2.70870        0.70552        4.41356
H         -3.23591        1.63094        5.81574
H         -4.33083        1.38903        4.45340
H         -3.25161        4.99158        4.18277
H         -4.65046        3.93046        4.40295
H         -3.48070        4.13181        5.70068
H         -0.91101        3.99237        4.01457
H         -1.17983        3.14833        5.53669
H         -0.67438        2.24718        4.11266
C          4.24071       -3.73454        4.71882
C          3.79045       -4.19637        3.32098
C          4.62388       -5.41277        2.87844
C          2.31059       -4.62202        3.40271
H          4.08851       -4.52087        5.45789
H          5.29702       -3.46842        4.72684
H          3.67280       -2.85934        5.03403
H          4.48123       -6.25175        3.55933
H          4.33214       -5.73549        1.87914
H          5.68753       -5.17861        2.85738
H          2.18238       -5.44256        4.10841
H          1.68356       -3.79701        3.74049
H          1.94497       -4.96021        2.43325
C          6.87053        0.62370        1.35526
C          6.88857       -0.87422        0.99506
C          7.26039       -1.04385       -0.48926
C          7.96288       -1.56957        1.85289
H          6.16503        1.17363        0.73347
H          6.57936        0.76533        2.39583
H          7.85467        1.07060        1.21559
H          7.26251       -2.09746       -0.76787
H          6.54989       -0.52924       -1.13461
H          8.25107       -0.63778       -0.69293
H          8.94404       -1.12945        1.67502
H          7.74283       -1.46681        2.91536
H          8.03012       -2.63074        1.61386
C          0.19583        4.17894        1.33779
C          1.30113        4.57866        0.34316
C          0.68005        5.51542       -0.71025
C          2.40819        5.32229        1.11091
H          0.59389        3.54921        2.13263
H         -0.24527        5.06058        1.80242
H         -0.60387        3.63746        0.83467
H         -0.10251        5.00343       -1.26837
H          0.23449        6.39049       -0.23737
H          1.42559        5.86662       -1.42224
H          2.86468        4.66959        1.85485
H          3.19402        5.66261        0.43734
H          2.00745        6.19469        1.62681
C          5.02940        1.38669       -3.69849
C          4.53434        2.69947       -3.06150
C          5.73203        3.39508       -2.38867
C          3.97075        3.59861       -4.17681
H          5.78774        1.58568       -4.45562
H          5.47531        0.73122       -2.95129
H          4.21225        0.85289       -4.18151
H          6.53095        3.57896       -3.10680
H          5.44183        4.35308       -1.95866
H          6.13475        2.77682       -1.58646
H          3.11686        3.12422       -4.65802
H          3.64327        4.56109       -3.78600
H          4.72387        3.78904       -4.94126
H         -1.09908       -2.24004       -5.14004
H          0.80469       -0.79270       -5.43134
H         -1.68484       -0.91473       -4.12981
H         -2.41833       -2.50971       -4.00113
H          1.99878       -1.04694       -4.15563
H          2.17643        0.30053       -5.27628
