58
-89.86512332
P          1.59935        0.21237        0.82668
C          1.92549        1.90963        0.33073
C          3.12528        2.24777       -0.25252
C          3.35069        3.55042       -0.65936
C          2.36822        4.50531       -0.48593
C          1.16054        4.15915        0.08666
C          0.93980        2.85579        0.49253
H         -0.01057        2.56685        0.90833
H          3.87591        1.48873       -0.40085
C          3.09980       -0.77772        0.81840
C          3.14657       -1.97763        0.14595
C          4.30272       -2.73627        0.17057
C          5.40362       -2.29048        0.87476
C          5.35033       -1.09054        1.55591
C          4.19218       -0.33397        1.52948
H          4.13388        0.60253        2.06189
H          2.28218       -2.31374       -0.40350
C          0.88719        0.12782        2.51786
C          0.23105       -1.23237        2.73673
C         -1.25558       -1.26591        2.41066
P         -1.71156       -0.61492        0.74171
C         -3.08471       -1.59347        0.12910
C         -2.87515       -2.91681       -0.18355
C         -3.92271       -3.68279       -0.66376
C         -5.17167       -3.11606       -0.82580
C         -5.37626       -1.78718       -0.51024
C         -4.32700       -1.02375       -0.03117
H         -4.46972        0.01602        0.21490
H         -1.89108       -3.34169       -0.06070
C         -2.12991        1.13973        0.75535
C         -2.23475        1.87324        1.91617
C         -2.51556        3.22580        1.85165
C         -2.69462        3.83718        0.62664
C         -2.59815        3.09850       -0.53526
C         -2.31558        1.74706       -0.46632
H         -2.22622        1.15416       -1.36315
H         -2.10128        1.39457        2.87134
Pd         0.05458       -0.43197       -0.77189
Cl         1.79363       -0.40197       -2.19386
Cl        -1.48304       -0.97629       -2.31957
H         -1.64032       -2.28758        2.46248
H         -1.82667       -0.69222        3.14189
H          0.75991       -1.97784        2.12484
H          0.37998       -1.56159        3.77739
H          1.71730        0.30122        3.20711
H          0.17830        0.94356        2.65989
H          4.28952        3.81714       -1.11623
H          0.38668        4.89889        0.20937
H          4.34373       -3.67246       -0.36154
H          6.20816       -0.74355        2.10819
H         -3.76178       -4.71830       -0.91481
H         -6.35002       -1.34412       -0.63967
H         -2.59422        3.80269        2.75856
H         -2.73669        3.57257       -1.49295
H          2.54135        5.52009       -0.80524
H          6.30549       -2.88042        0.89349
H         -5.98761       -3.71133       -1.20212
H         -2.91149        4.89182        0.57758
