111
-148.55604485
P         -2.57927        2.08329        0.80778
P          0.14557        0.40469        0.48053
C         -1.48087        1.82011        2.22812
C         -0.29564        1.13109        2.07404
C         -3.38980        3.74576        0.83515
C         -2.80431        4.65394       -0.22406
C         -1.84122        2.29764        3.47176
H         -2.77842        2.81612        3.59212
C         -1.00712        2.09393        4.55762
H         -1.28831        2.46776        5.52861
C          0.18245        1.40962        4.39915
H          0.83095        1.24884        5.24460
C          0.53640        0.92228        3.15387
H          1.45410        0.37167        3.01609
Pd        -1.29937        1.45068       -0.98782
Cl        -2.93875        2.08428       -2.38148
Cl         0.07072        0.78011       -2.64579
C         -4.87940        3.40603        0.63559
C         -4.06728        0.98630        0.81948
H         -2.93904        4.22529       -1.21842
H         -3.28535        5.63490       -0.21977
H         -1.73202        4.80029       -0.07325
H         -5.11896        3.48930       -0.43348
H         -5.51398        4.15117        1.13903
H         -4.16459        0.59481       -0.20213
C         -5.21282        1.96817        1.12727
C         -3.91358       -0.14256        1.81527
H         -3.22166        4.16118        1.83679
H         -5.38484        1.98209        2.21242
H         -6.15412        1.60927        0.68372
H         -3.05701       -0.77281        1.56686
H         -3.75221        0.24747        2.82196
H         -4.80330       -0.77594        1.84223
C         -1.19599       -3.94369        0.24417
C         -1.08035       -3.31758        1.51443
C         -0.64939       -2.00185        1.56022
C         -0.42012       -1.29330        0.41010
C         -0.65668       -1.85531       -0.81609
C         -1.08419       -3.16473       -0.93775
O         -1.33790       -5.35222        0.15371
C         -1.41331       -4.01314        2.84526
H         -0.48112       -1.51516        2.50522
H         -0.49206       -1.25067       -1.69135
C         -1.42431       -3.67565       -2.34736
C          4.54030        0.74796       -0.66036
C          3.81604       -0.43299       -0.96243
C          2.48178       -0.49141       -0.59959
C          1.88620        0.53143        0.09035
C          2.60623        1.63379        0.46982
C          3.94924        1.75253        0.14913
O          5.83956        0.94184       -1.20017
C          4.43236       -1.62396       -1.71258
H          1.87888       -1.33995       -0.87056
H          2.09849        2.40883        1.01755
C          4.73376        2.97303        0.65609
C         -2.28452       -3.07772        3.71281
C         -2.21480       -5.31080        2.64282
C         -0.10920       -4.32660        3.59680
C         -2.31304       -2.63545       -3.06618
C         -0.12525       -3.86660       -3.14808
C         -2.21074       -4.99725       -2.31735
C         -0.09111       -6.02502        0.09482
H         -3.19251       -2.79591        3.18085
H         -2.57910       -3.57071        4.63889
H         -1.75584       -2.16589        3.98545
H         -2.52178       -5.73613        3.59803
H         -3.10981       -5.12117        2.05129
H         -1.62459       -6.06175        2.12297
H         -0.31658       -4.80162        4.55534
H          0.52510       -4.99739        3.02040
H          0.45784       -3.41628        3.78907
H         -1.78564       -1.69813       -3.23508
H         -2.63490       -3.00543       -4.03916
H         -3.20371       -2.41818       -2.47732
H          0.42761       -2.93060       -3.22232
H          0.52470       -4.59999       -2.67440
H         -0.33861       -4.21046       -4.15977
H         -3.10117       -4.90032       -1.69717
H         -2.52363       -5.29118       -3.31897
H         -1.60772       -5.80557       -1.91064
H         -0.26505       -7.09670       -0.00400
H          0.48414       -5.67272       -0.76001
H          0.47902       -5.83542        1.00282
C          5.84753        1.59072       -2.46563
C          4.22051       -1.43302       -3.22219
C          5.93252       -1.76446       -1.39821
C          3.75655       -2.94756       -1.28436
C          6.21388        2.62248        0.89466
C          4.61817        4.11318       -0.36678
C          4.16524        3.46221        2.00784
H          3.15840       -1.35864       -3.45495
H          4.69982       -0.52311       -3.57535
H          4.63206       -2.27111       -3.78398
H          6.35380       -2.64460       -1.88336
H          6.49336       -0.89938       -1.74274
H          6.09209       -1.85960       -0.32469
H          2.72212       -3.00105       -1.62023
H          4.27560       -3.80377       -1.71456
H          3.77104       -3.05747       -0.20032
H          6.71032        2.34414       -0.03156
H          6.75437        3.46976        1.31591
H          6.30323        1.78527        1.58609
H          3.57484        4.38631       -0.52290
H          5.15215        4.99966       -0.02548
H          5.03120        3.82234       -1.32964
H          4.11538        2.64414        2.72605
H          3.16706        3.88320        1.89764
H          4.79585        4.24271        2.43301
H          6.30920        0.94014       -3.20817
H          4.82968        1.83112       -2.77551
H          6.43497        2.50661       -2.40321
