111
-148.55501697
P         -1.79670        2.73062        0.28465
P         -0.52611       -0.15248        0.47528
C         -1.81710        1.83915        1.86644
C         -1.32770        0.55147        1.92865
C         -0.70518        4.21941        0.37663
C          0.51380        4.04527       -0.50459
C         -2.29563        2.44767        3.00911
H         -2.64096        3.46756        2.96361
C         -2.30699        1.75289        4.20634
H         -2.68476        2.22601        5.09801
C         -1.83019        0.45699        4.26154
H         -1.83493       -0.08160        5.19484
C         -1.32858       -0.14260        3.12017
H         -0.92100       -1.14091        3.15143
Pd        -1.30298        1.11605       -1.29311
Cl        -1.96962        2.58166       -2.85125
Cl        -0.70815       -0.58802       -2.63341
C         -1.63738        5.37051       -0.05090
C         -3.41300        3.53418       -0.13181
H          1.15626        4.92850       -0.47791
H          1.11102        3.18480       -0.19596
H          0.21795        3.88029       -1.54260
H         -1.46764        5.58246       -1.11547
H         -1.37004        6.29706        0.47932
H         -3.54582        3.39108       -1.21224
C         -3.13664        5.01825        0.16902
C         -4.57965        2.93180        0.62221
H         -0.42014        4.32331        1.43162
H         -3.41640        5.22824        1.21050
H         -3.78582        5.66034       -0.44579
H         -4.66088        1.85895        0.43315
H         -4.46559        3.06628        1.69808
H         -5.52382        3.39921        0.33357
C         -0.78546       -4.67411        0.01582
C          0.48113       -4.04677        0.12968
C          0.51824       -2.67028        0.26995
C         -0.63372       -1.93399        0.36223
C         -1.85995       -2.54460        0.35192
C         -1.96972       -3.92010        0.22176
O         -0.86786       -6.04660       -0.34037
C          1.80572       -4.82230        0.05450
H          1.45851       -2.14820        0.29017
H         -2.73651       -1.92479        0.43308
C         -3.36375       -4.56550        0.26609
C          3.77794        1.32956        0.27935
C          2.97496        1.65187        1.40383
C          1.68416        1.15324        1.45325
C          1.16768        0.43134        0.40955
C          1.89807        0.22460       -0.73041
C          3.19736        0.68523       -0.84248
O          5.16703        1.62514        0.28960
C          3.48931        2.51679        2.56502
H          1.05988        1.32680        2.31170
H          1.41967       -0.28734       -1.54690
C          3.95313        0.46743       -2.16197
C          2.25953       -4.90885       -1.41079
C          2.90778       -4.10331        0.86671
C          1.65699       -6.23342        0.65110
C         -3.30073       -5.98664        0.85497
C         -4.31464       -3.74778        1.16968
C         -3.95008       -4.60477       -1.15335
C         -0.93725       -6.27780       -1.74195
H          2.38839       -3.91252       -1.83306
H          3.20872       -5.43735       -1.49540
H          1.52767       -5.43287       -2.02045
H          3.19451       -3.15703        0.41010
H          2.57300       -3.90626        1.88480
H          3.80779       -4.71522        0.92312
H          2.61046       -6.76103        0.65205
H          1.29795       -6.17955        1.67831
H          0.95038       -6.83264        0.08245
H         -2.71227       -6.65120        0.22751
H         -2.84540       -5.97187        1.84462
H         -4.29746       -6.41751        0.94635
H         -4.54553       -2.77543        0.73727
H         -5.26176       -4.26922        1.30641
H         -3.87410       -3.59046        2.15388
H         -4.94756       -5.04343       -1.15217
H         -4.02324       -3.59946       -1.56752
H         -3.32564       -5.19205       -1.82210
H         -1.85788       -6.81024       -1.98005
H         -0.91264       -5.33191       -2.28468
H         -0.09655       -6.89787       -2.05264
C          5.97660        0.57946        0.81213
C          4.14253        1.61369        3.62168
C          4.49851        3.56696        2.06616
C          2.32669        3.29077        3.22742
C          2.97160        0.46115       -3.35678
C          4.96226        1.60141       -2.41703
C          4.67596       -0.88729       -2.11360
H          4.50828        2.20001        4.46425
H          3.42621        0.88580        4.00204
H          4.98313        1.06417        3.20485
H          5.38978        3.09742        1.65721
H          4.05598        4.18260        1.28366
H          4.81422        4.22338        2.87665
H          1.63547        2.62321        3.73969
H          2.70368        3.99230        3.97124
H          1.76861        3.86013        2.48515
H          2.32347       -0.41378       -3.34268
H          2.34415        1.35208       -3.34825
H          3.51275        0.44188       -4.30237
H          5.45171        1.48068       -3.38310
H          4.46149        2.56900       -2.40878
H          5.73798        1.62111       -1.65566
H          5.39143       -0.92346       -1.29548
H          5.21495       -1.07590       -3.04165
H          3.96336       -1.69845       -1.96623
H          5.35661       -0.26053        1.12815
H          6.68005        0.24522        0.04978
H          6.54762        0.95068        1.66301
