105
-153.05856084
Cl         0.22620        2.50964        2.84946
Pd        -0.41259        1.47714        0.95829
P         -1.05011        0.52292       -1.12322
N         -0.51565       -0.91757       -1.98609
C          0.27975       -1.99428       -1.60669
C          0.33858       -2.47679       -0.27561
C          1.22555       -3.52999        0.03722
C          1.26323       -4.05638        1.45278
C          2.45232       -4.97984        1.76337
C          2.68743       -5.97825        0.62680
C          2.96804       -5.23938       -0.68962
C          2.00302       -4.11452       -0.96683
C          1.88540       -3.65764       -2.27334
C          1.04115       -2.62581       -2.58900
H          0.98107       -2.26559       -3.60125
H          2.48440       -4.11544       -3.04232
H          3.98511       -4.82991       -0.67405
H          3.50815       -6.66657        0.87405
H          3.35590       -4.37329        1.90417
H          1.27376       -3.20538        2.14319
C         -0.69510       -2.08422        0.71384
C         -0.32657       -1.44888        1.92938
C         -1.29242       -1.31749        2.93104
C         -2.56755       -1.78720        2.75105
C         -2.94827       -2.40670        1.56700
C         -4.35519       -2.94421        1.46332
C         -4.77496       -3.33866        0.03826
C         -3.65105       -4.10039       -0.66880
C         -2.37746       -3.24556       -0.74973
C         -2.01301       -2.54933        0.53999
H         -1.53232       -3.86741       -1.07024
H         -3.96947       -4.42337       -1.67010
H         -5.01545       -2.43659       -0.53719
H         -5.05024       -2.20067        1.87294
H         -3.29385       -1.68097        3.53904
H         -1.02166       -0.82995        3.85117
N          0.96011       -0.93919        2.15616
P          1.60404        0.25562        1.03520
C          2.57412       -0.32515       -0.34268
C          2.42018        0.29818       -1.55616
C          3.21889       -0.07425       -2.62195
C          4.18019       -1.06504       -2.46951
C          4.34344       -1.65436       -1.22232
C          3.54151       -1.28268       -0.15815
H          3.66309       -1.73262        0.81446
H          5.10027       -2.40850       -1.09055
C          5.04503       -1.46447       -3.61342
H          3.09819        0.40226       -3.57964
H          1.67109        1.06495       -1.66267
C          2.64420        1.46679        1.85725
C          3.24405        1.17548        3.05901
C          4.05507        2.11672        3.66680
C          4.27907        3.34931        3.06791
C          3.66701        3.62198        1.85201
C          2.85697        2.67931        1.24481
H          2.38283        2.88646        0.29788
H          3.82507        4.57911        1.38512
C          5.12553        4.37623        3.73603
H          4.51821        1.89934        4.61410
H          3.08456        0.21243        3.51542
H          1.07033       -0.48705        3.05453
H         -0.78133       -0.83051       -2.95940
C         -0.68546        1.94249       -2.17573
C         -1.12714        3.19274       -1.81393
C         -0.84851        4.28626       -2.61098
C         -0.12903        4.13574       -3.78812
C          0.31157        2.86767       -4.14076
C          0.02751        1.77649       -3.34046
H          0.37212        0.79515       -3.61938
H          0.88085        2.74034       -5.04574
C          0.19923        5.31699       -4.63342
H         -1.18683        5.26632       -2.32086
H         -1.68850        3.30751       -0.90208
C         -2.84401        0.40982       -1.09406
C         -3.50810        0.54429       -2.29062
C         -4.88941        0.46866       -2.32646
C         -5.61554        0.25963       -1.16221
C         -4.92849        0.13690        0.03690
C         -3.54724        0.19434        0.06557
H         -3.00971        0.08813        0.99458
H         -5.48227       -0.00015        0.94971
C         -7.10318        0.20701       -1.19065
H         -5.41224        0.57921       -3.26105
H         -2.94287        0.71471       -3.19375
Cl        -2.42130        2.49143        1.01827
H          2.94799       -5.94264       -1.53205
H          2.29995       -5.50520        2.71677
H          1.79787       -6.60968        0.50794
H          0.32246       -4.58347        1.65107
H         -3.43486       -5.02349       -0.11641
H         -2.49407       -2.48437       -1.53013
H         -4.44059       -3.81512        2.12420
H         -5.69989       -3.93246        0.05258
H          5.95629       -0.86538       -3.63826
H          5.33317       -2.51417       -3.54008
H          4.52682       -1.33011       -4.56400
H          4.51540        5.03917        4.35107
H          5.87359        3.91254        4.38068
H          5.65377        4.98790        3.00318
H          0.29593        5.03584       -5.68303
H         -0.57936        6.07808       -4.56548
H          1.14046        5.76919       -4.31789
H         -7.46656       -0.15903       -2.15192
H         -7.48761       -0.45875       -0.41655
H         -7.52848        1.19765       -1.02454
