171
-217.83421392
P         -1.72198        0.67571        0.26969
P          1.50731       -0.18816       -0.26371
C         -0.92171        1.92187       -0.76708
C          0.64731       -0.69940       -1.76569
C         -0.20347        1.63368       -1.92194
C          0.48346        2.67685       -2.57090
C          0.40416        3.96161       -2.06090
C         -0.32170        4.23132       -0.92070
C         -0.97458        3.20273       -0.26943
C          0.75526       -1.98311       -2.24280
C          0.09071       -2.35538       -3.39484
C         -0.69454       -1.43775       -4.06085
C         -0.82776       -0.14079       -3.59242
C         -0.12620        0.24176       -2.43342
Cl         2.04437        0.95023        2.76725
Cl        -0.99154        0.30155        3.51140
C         -1.69344        0.83513       -4.31093
C          1.31660        2.43251       -3.78053
H         -0.36926        5.23501       -0.53098
H         -1.52069        3.39247        0.64291
H          1.34695       -2.70405       -1.70638
H          0.18015       -3.36173       -3.76990
H          0.93066        4.75500       -2.56432
H         -1.21490       -1.72791       -4.95773
C         -2.84264       -3.40275       -1.36846
C         -3.53525       -2.27790       -1.79773
C         -3.13498       -1.04539       -1.30066
C         -2.09682       -0.94952       -0.40709
C         -1.43381       -2.07639        0.02175
C         -1.78864       -3.32917       -0.46608
H         -3.13927       -4.36984       -1.72814
H         -3.65760       -0.15215       -1.59530
H         -0.63461       -1.97258        0.73311
C         -5.69749        2.39098        1.59899
C         -4.87381        1.82441        2.56372
C         -3.65032        1.31464        2.15144
C         -3.27322        1.38217        0.83488
C         -4.09463        1.95646       -0.10441
C         -5.33426        2.46729        0.26030
H         -6.65042        2.78628        1.89958
H         -2.96922        0.87135        2.85402
H         -3.75490        2.00784       -1.12500
C          3.84031       -3.70724        1.46607
C          2.98647       -3.01058        2.31218
C          2.25808       -1.95833        1.77634
C          2.39400       -1.59413        0.45732
C          3.27209       -2.27577       -0.34975
C          3.99592       -3.35929        0.12993
H          4.40637       -4.52941        1.85932
H          1.60187       -1.40178        2.41876
H          3.40125       -1.95985       -1.37045
C          4.65260        2.84901       -1.45506
C          4.46749        1.71642       -2.23867
C          3.49214        0.80764       -1.84455
C          2.74618        1.02812       -0.71260
C          2.94052        2.15504        0.04368
C          3.89527        3.09510       -0.31586
H          5.41889        3.54614       -1.73656
H          3.29459       -0.07379       -2.42933
H          2.35813        2.29267        0.93663
Pd         0.18192        0.47944        1.59727
C         -5.99639       -1.85805       -1.96407
C         -4.75458       -2.35472       -2.72793
C         -5.01414       -3.79476       -3.20988
C         -4.52142       -1.46529       -3.96190
H         -6.17216       -2.46699       -1.07754
H         -5.87241       -0.82538       -1.63959
H         -6.88673       -1.90705       -2.59067
H         -5.86992       -3.82834       -3.88408
H         -4.15241       -4.18775       -3.74928
H         -5.23040       -4.45708       -2.37188
H         -5.37074       -1.51303       -4.64323
H         -4.38278       -0.42294       -3.67838
H         -3.63544       -1.78999       -4.50593
C         -2.11766       -5.47330        0.78280
C         -1.10241       -4.62277       -0.00158
C          0.09868       -4.32968        0.91245
C         -0.59371       -5.41527       -1.22068
H         -2.49469       -4.92329        1.64488
H         -2.96960       -5.74434        0.16016
H         -1.65976       -6.39423        1.14342
H         -0.21485       -3.79053        1.80517
H          0.57965       -5.25376        1.23270
H          0.84583       -3.73364        0.39174
H         -1.40921       -5.69216       -1.88724
H          0.12222       -4.82657       -1.79221
H         -0.09585       -6.33264       -0.90691
C         -5.57459        3.20973        4.53320
C         -5.32916        1.77568        4.02914
C         -4.26757        1.11695        4.93230
C         -6.63015        0.95853        4.12993
H         -5.87958        3.20866        5.57952
H         -4.66772        3.80791        4.44640
H         -6.35736        3.70352        3.95864
H         -4.07207        0.09021        4.62395
H         -3.32894        1.66983        4.90253
H         -4.60267        1.09167        5.96902
H         -6.96851        0.88959        5.16365
H         -7.43009        1.41368        3.54710
H         -6.47809       -0.05382        3.75600
C         -7.62402        2.31808       -0.75253
C         -6.29239        3.09165       -0.76361
C         -5.71199        3.03734       -2.19104
C         -6.54214        4.56439       -0.39204
H         -8.10546        2.37049        0.22320
H         -8.31761        2.72510       -1.48812
H         -7.46029        1.26684       -0.98878
H         -5.52529        2.00880       -2.49973
H         -6.40631        3.47563       -2.90779
H         -4.77696        3.59345       -2.25656
H         -7.20720        5.04123       -1.11186
H         -6.99887        4.65170        0.59316
H         -5.60534        5.12118       -0.37697
C          1.41347       -3.61200        4.18633
C          2.87672       -3.30740        3.81602
C          3.35629       -2.07193        4.60157
C          3.74184       -4.51513        4.22365
H          1.31560       -3.80309        5.25477
H          0.75754       -2.77822        3.93898
H          1.05731       -4.49463        3.65663
H          2.73835       -1.20143        4.38422
H          3.31460       -2.25077        5.67569
H          4.38439       -1.82416        4.33886
H          3.43654       -5.41405        3.68827
H          4.79612       -4.33041        4.01853
H          3.64513       -4.71715        5.29034
C          4.12285       -4.63824       -2.02189
C          4.93538       -4.11008       -0.82393
C          5.61601       -5.30632       -0.13167
C          6.02681       -3.14462       -1.32226
H          3.67362       -3.82301       -2.58789
H          4.75657       -5.20531       -2.70349
H          3.31956       -5.29265       -1.68350
H          6.26734       -5.83577       -0.82699
H          6.22898       -4.97797        0.70747
H          4.87725       -6.01834        0.23601
H          5.59406       -2.30269       -1.86100
H          6.59913       -2.74560       -0.48506
H          6.71902       -3.65081       -1.99484
C          4.86550        0.27001       -4.29464
C          5.36860        1.46236       -3.45628
C          6.79185        1.15128       -2.96059
C          5.39810        2.70761       -4.36360
H          4.89578       -0.65671       -3.72246
H          3.84256        0.43352       -4.63311
H          5.48839        0.12812       -5.17769
H          7.19981        1.98652       -2.39205
H          6.79074        0.27509       -2.31236
H          7.46290        0.95327       -3.79622
H          5.80573        3.57333       -3.84372
H          6.01723        2.53136       -5.24311
H          4.39607        2.96208       -4.70671
C          5.17340        5.27413       -0.00010
C          4.08938        4.33684        0.56503
C          4.51123        3.89190        1.97784
C          2.76311        5.11558        0.64269
H          6.14038        4.77357       -0.04588
H          4.91214        5.61604       -1.00147
H          5.28885        6.15578        0.63025
H          4.67277        4.75251        2.62654
H          3.74916        3.26498        2.43930
H          5.43673        3.31786        1.94003
H          2.87080        6.01066        1.25491
H          2.44020        5.42335       -0.35143
H          1.97138        4.50745        1.07869
H         -1.09417        1.52879       -4.90129
H          1.41936        1.36752       -3.99139
H         -2.28860        1.41930       -3.60702
H         -2.38182        0.33262       -4.99152
H          2.31895        2.83836       -3.64055
H          0.88170        2.91158       -4.65888
