105
-153.06679339
Cl         0.01717        1.96693        3.06663
Pd        -0.48496        1.29024        0.97121
P         -1.09030        0.48853       -1.15327
N         -0.69633       -1.01228       -1.98672
C          0.20513       -2.01507       -1.63471
C          0.33053       -2.49305       -0.30608
C          1.28315       -3.49319       -0.02022
C          1.39323       -4.01298        1.39377
C          2.21399       -5.30376        1.54111
C          3.48734       -5.24392        0.69272
C          3.13816       -5.06088       -0.79150
C          2.08516       -4.01071       -1.04133
C          1.90419       -3.56284       -2.34382
C          0.98072       -2.59448       -2.63799
H          0.86602       -2.24416       -3.64894
H          2.51243       -3.98101       -3.12796
H          4.03802       -4.80298       -1.36469
H          4.10760       -4.40299        1.02771
H          2.45797       -5.49373        2.59589
H          1.83728       -3.22636        2.01454
C         -0.66955       -2.12496        0.72482
C         -0.24587       -1.53960        1.94928
C         -1.17913       -1.40587        2.98174
C         -2.47879       -1.80799        2.81546
C         -2.91500       -2.36880        1.62116
C         -4.35227       -2.82344        1.53395
C         -4.81477       -3.19027        0.11470
C         -3.73736       -3.99422       -0.61734
C         -2.43452       -3.18785       -0.72058
C         -2.00947       -2.53017        0.57025
H         -1.62216       -3.83383       -1.07629
H         -4.08822       -4.30139       -1.61278
H         -5.02692       -2.27470       -0.45083
H         -4.99647       -2.04046        1.95322
H         -3.18268       -1.69110        3.62206
H         -0.86753       -0.95282        3.90651
N          1.05015       -1.03384        2.13020
P          1.59812        0.18852        0.98413
C          2.61308       -0.36455       -0.37384
C          2.41409        0.19778       -1.60979
C          3.23549       -0.15798       -2.66365
C          4.27102       -1.06405       -2.47504
C          4.46367       -1.60780       -1.21138
C          3.63971       -1.25126       -0.15884
H          3.78862       -1.66010        0.82791
H          5.25970       -2.31607       -1.05771
C          5.12864       -1.48217       -3.61778
H          3.07224        0.26282       -3.64095
H          1.60992        0.90100       -1.74383
C          2.52975        1.50360        1.77647
C          3.24878        1.25450        2.92056
C          3.96803        2.27626        3.51378
C          3.97914        3.54854        2.95756
C          3.24775        3.77791        1.79991
C          2.52997        2.75516        1.20690
H          1.96379        2.92911        0.30481
H          3.24010        4.76382        1.36749
C          4.72643        4.65685        3.61379
H          4.52412        2.09136        4.41694
H          3.24980        0.26334        3.34418
H          1.20598       -0.60186        3.03177
H         -0.95956       -0.91350       -2.95916
C         -0.60750        1.87693       -2.19298
C         -0.87010        3.16039       -1.77730
C         -0.48783        4.23445       -2.55778
C          0.16595        4.03143       -3.76510
C          0.40772        2.72922       -4.18048
C          0.02160        1.65773       -3.39647
H          0.22455        0.64968       -3.71648
H          0.90201        2.55955       -5.12183
C          0.56069        5.18641       -4.61817
H         -0.69641        5.23947       -2.23288
H         -1.38009        3.31533       -0.84097
C         -2.88657        0.52034       -1.08916
C         -3.56416        0.76163       -2.26087
C         -4.94768        0.78537       -2.26549
C         -5.66122        0.57871       -1.09298
C         -4.95940        0.32818        0.07747
C         -3.57773        0.29020        0.07521
H         -3.03237        0.09231        0.98357
H         -5.50267        0.16402        0.99217
C         -7.15010        0.58054       -1.09708
H         -5.48166        0.96819       -3.18228
H         -3.00729        0.93216       -3.16910
Cl        -2.28736        2.64322        1.08729
H          2.78753       -6.01239       -1.20876
H          1.60622       -6.15960        1.22155
H          4.10135       -6.14299        0.84445
H          0.38222       -4.16512        1.79230
H         -3.54573       -4.92644       -0.07130
H         -2.54702       -2.40858       -1.48311
H         -4.48027       -3.68863        2.19546
H         -5.76372       -3.74431        0.14257
H          5.22792       -0.67957       -4.34992
H          6.13130       -1.74893       -3.28083
H          4.70192       -2.34904       -4.12423
H          5.07727        5.38387        2.88003
H          4.09123        5.18048        4.32948
H          5.59885        4.28071        4.14994
H         -0.24461        5.45492       -5.30323
H          0.79273        6.06274       -4.01129
H          1.44493        4.95275       -5.21284
H         -7.54515        0.93747       -0.14493
H         -7.54128        1.22987       -1.88150
H         -7.53802       -0.42482       -1.26697
