72
-108.39450799
Cl        -1.90212        0.70555        2.68990
Cl         0.89726       -0.84261        2.80868
P          1.12753       -1.08847       -0.22167
P         -2.21452        0.13980       -0.44847
C         -3.25988       -1.43570       -0.27225
C         -3.69331       -1.60271        1.18582
C         -4.48133       -1.35091       -1.18092
C         -3.27757        1.70364       -0.20586
C         -4.02027        2.05252       -1.50294
C         -1.37293        0.43266       -2.11354
C         -1.41080       -0.72851       -3.08583
C          1.18469        0.23821       -1.46476
C          0.04122        0.97097       -2.00535
C          0.58181        2.02963       -2.85954
C          2.02834        1.92754       -2.85910
C          2.40086        0.80870       -2.01450
C         -2.41373       -2.64583       -0.64170
H         -2.83473       -1.60343        1.85721
H         -4.37158       -0.81855        1.50997
H         -5.16314       -0.56401       -0.86312
H         -5.03984       -2.28817       -1.16074
C         -4.29722        1.56434        0.92085
H         -3.35882        2.49438       -2.24755
H         -4.80003        2.79100       -1.30918
H         -1.97044        1.23876       -2.54868
H         -0.76321       -1.53188       -2.74353
H         -1.03600       -0.42833       -4.06655
H         -2.41615       -1.12212       -3.22883
H         -0.01088        2.70904       -3.47474
H          2.71597        2.55551       -3.42978
Pd        -0.55662       -0.26132        1.19129
H          3.41434        0.46473       -1.79725
C         -2.29572        2.81330        0.13219
H         -4.49664        1.17913       -1.94498
H         -3.82981        1.23463        1.84598
H         -4.77086        2.52556        1.12539
H         -5.09378        0.87067        0.65869
H         -1.50625        2.87244       -0.61830
H         -2.79776        3.78215        0.17237
H         -1.84106        2.63710        1.10623
H         -4.21612       -2.55064        1.32293
H         -4.20031       -1.15703       -2.21478
H         -1.52365       -2.69148       -0.01677
H         -2.97113       -3.57076       -0.48415
H         -2.10696       -2.63299       -1.68393
C          2.81143       -1.26806        0.42769
C          3.66044       -2.23264       -0.05834
C          4.86981       -2.10003        0.62506
C          4.70975       -1.05473        1.50043
O          3.45394       -0.53408        1.38509
H          3.42560       -2.95070       -0.82833
H          5.75479       -2.70055        0.49197
H          5.45945       -0.68426        2.18874
C          0.70307       -2.71437       -0.87058
C          0.70298       -3.82547       -0.06404
C          0.35346       -4.91276       -0.86684
C          0.15519       -4.41695       -2.13241
O          0.36363       -3.06683       -2.14797
H          0.93610       -3.83926        0.98932
H          0.26010       -5.94003       -0.55463
H         -0.12733       -4.99790       -3.00154
Fe         1.33465        2.17935       -0.93368
C          2.15127        3.99809       -0.45287
C          2.99294        2.90660        0.00316
C          2.20901        2.08496        0.90558
C          0.89422        2.67395        1.02957
C          0.84914        3.84217        0.16958
H          2.44993        4.80203       -1.12954
H          4.03666        2.73856       -0.27285
H          2.54370        1.17141        1.39665
H          0.10374        2.30879        1.68723
H          0.01281        4.53820        0.07401
