171
-217.83891416
P         -1.54094        0.17337       -0.23881
P          1.69799       -0.72146        0.25443
C         -0.69577        0.70081       -1.73611
C          0.88261       -1.93838       -0.79767
C          0.08221       -0.21894       -2.42841
C          0.75527        0.19776       -3.59310
C          0.58178        1.49747       -4.04155
C         -0.21349        2.38927       -3.35210
C         -0.85105        1.98491       -2.19601
C          0.93067       -3.22794       -0.32244
C          0.28064       -4.24355       -0.99592
C         -0.43631       -3.95055       -2.13556
C         -0.51290       -2.65544       -2.61969
C          0.17002       -1.62352       -1.94880
Cl         1.03635       -0.33724        3.46110
Cl        -2.01195       -1.07536        2.80149
C         -1.32950       -2.39161       -3.83473
C          1.62612       -0.74137       -4.35216
H         -0.33540        3.39780       -3.71207
H         -1.48082        2.66997       -1.65485
H          1.47331       -3.43532        0.58828
H          0.32559       -5.25470       -0.62563
H          1.07147        1.80688       -4.94904
H         -0.95769       -4.73405       -2.65943
C         -4.70023       -2.82232       -1.50726
C         -4.52625       -1.66369       -2.25642
C         -3.54419       -0.76997       -1.84693
C         -2.79767       -1.01375       -0.71927
C         -2.99326       -2.15651        0.01219
C         -3.94233       -3.09227       -0.37332
H         -5.44979       -3.52793       -1.80917
H         -3.35191        0.12000       -2.42182
H         -2.41385       -2.31037        0.90474
C         -3.68804        3.77014        1.57173
C         -4.04225        3.31333        0.30923
C         -3.37959        2.19824       -0.18684
C         -2.37356        1.59264        0.52653
C         -2.03684        2.06944        1.77262
C         -2.69669        3.15782        2.32574
H         -4.19877        4.61734        1.98912
H         -3.65556        1.79735       -1.14590
H         -1.26037        1.58625        2.33358
C          5.66950       -2.49256        1.53306
C          5.26901       -2.59879        0.20649
C          4.03463       -2.06551       -0.14442
C          3.24672       -1.45101        0.79795
C          3.65893       -1.35801        2.10177
C          4.88042       -1.88046        2.50007
H          6.62333       -2.89906        1.81219
H          3.67306       -2.12968       -1.15666
H          3.01127       -0.88369        2.81634
C          2.89599        3.33195       -1.38080
C          1.91745        3.28889       -0.39413
C          1.52606        2.04210        0.07767
C          2.09764        0.89555       -0.42299
C          3.07613        0.96049       -1.38419
C          3.50043        2.18608       -1.88130
H          3.21643        4.28286       -1.76252
H          0.78107        1.96822        0.84992
H          3.51917        0.04421       -1.73238
Pd        -0.20353       -0.46868        1.59798
C         -4.53306       -1.12441       -4.72004
C         -5.40771       -1.31726       -3.46760
C         -6.16858       -0.01128       -3.17321
C         -6.43622       -2.42650       -3.76045
H         -4.00958       -2.04527       -4.97307
H         -5.14264       -0.84323       -5.57868
H         -3.79095       -0.34115       -4.57062
H         -6.83417        0.24804       -3.99632
H         -6.77069       -0.11175       -2.27041
H         -5.47954        0.81987       -3.02888
H         -7.04979       -2.16651       -4.62299
H         -5.94100       -3.37194       -3.98128
H         -7.10584       -2.57484       -2.91348
C         -4.55964       -3.95064        1.89784
C         -4.13025       -4.35722        0.47578
C         -2.79874       -5.12826        0.53863
C         -5.20565       -5.28845       -0.11537
H         -4.71719       -4.82830        2.52429
H         -3.80339       -3.33030        2.37740
H         -5.48905       -3.38232        1.87132
H         -2.90184       -6.03866        1.12863
H         -2.47095       -5.40960       -0.46167
H         -2.01256       -4.52539        0.99164
H         -5.31701       -6.18551        0.49361
H         -6.17607       -4.79388       -0.15282
H         -4.93847       -5.60503       -1.12348
C         -4.63108        4.24454       -1.94997
C         -5.15229        3.96607       -0.52599
C         -5.61466        5.30252        0.08628
C         -6.35437        3.00810       -0.58997
H         -5.38708        4.75219       -2.54875
H         -3.74467        4.87795       -1.91792
H         -4.36624        3.32367       -2.46769
H         -4.77947        5.99570        0.18615
H         -6.36669        5.77680       -0.54422
H         -6.06040        5.15331        1.06938
H         -6.06819        2.05091       -1.02303
H         -6.74692        2.81567        0.40833
H         -7.15788        3.42652       -1.19581
C         -1.27354        2.83554        4.41441
C         -2.37788        3.67245        3.73718
C         -3.64726        3.58625        4.60478
C         -1.90483        5.13447        3.65310
H         -1.06491        3.20891        5.41672
H         -1.57339        1.79188        4.50774
H         -0.34350        2.87636        3.84922
H         -4.44738        4.20493        4.20029
H         -4.00957        2.55952        4.65298
H         -3.44812        3.92241        5.62218
H         -2.67511        5.77652        3.22748
H         -1.65585        5.52160        4.64097
H         -1.01836        5.21611        3.02603
C          6.46749       -4.72206       -0.38512
C          6.18698       -3.27283       -0.82306
C          7.50950       -2.48949       -0.91152
C          5.54378       -3.30356       -2.22405
H          7.09970       -5.23334       -1.11089
H          6.97424       -4.75460        0.57859
H          5.53733       -5.28262       -0.29341
H          8.02934       -2.48122        0.04580
H          8.17715       -2.93291       -1.65006
H          7.32520       -1.45500       -1.20086
H          6.20381       -3.79013       -2.94205
H          4.60438       -3.85612       -2.21243
H          5.34757       -2.29559       -2.58890
C          5.37999       -0.27147        4.35560
C          5.30380       -1.76074        3.97088
C          6.68113       -2.40333        4.22302
C          4.26283       -2.47066        4.85687
H          4.41202        0.21573        4.24383
H          5.69550       -0.15165        5.39183
H          6.09400        0.25381        3.72160
H          6.96430       -2.31155        5.27154
H          6.66967       -3.46486        3.97641
H          7.45531       -1.91781        3.62915
H          4.17487       -3.52119        4.58080
H          4.54526       -2.41966        5.90817
H          3.27869       -2.01491        4.75451
C         -0.19551        4.59847       -0.01059
C          1.32326        4.56237        0.22789
C          1.93728        5.83780       -0.38114
C          1.61292        4.55922        1.74021
H         -0.64406        5.47981        0.44719
H         -0.41656        4.62669       -1.07686
H         -0.67918        3.72098        0.41266
H          1.50891        6.72906        0.07737
H          3.01477        5.87024       -0.22061
H          1.74350        5.89365       -1.45220
H          1.23863        5.46697        2.21258
H          1.14403        3.70720        2.22968
H          2.68525        4.50118        1.92572
C          5.23415        0.92285       -3.25210
C          4.63459        2.30154       -2.91035
C          5.75789        3.18284       -2.33169
C          4.09154        2.93678       -4.20184
H          6.04576        1.02134       -3.97283
H          5.63942        0.44167       -2.36210
H          4.48494        0.26426       -3.68941
H          6.13206        2.76396       -1.39767
H          6.59364        3.25585       -3.02742
H          5.40632        4.19356       -2.12850
H          3.67078        3.92338       -4.01093
H          4.88154        3.04707       -4.94450
H          3.30848        2.31655       -4.63488
H         -2.30095       -2.88068       -3.75210
H          2.08249       -1.47804       -3.68898
H         -0.83606       -2.77562       -4.72869
H         -1.50526       -1.32472       -3.97606
H          2.43206       -0.20877       -4.85879
H          1.05409       -1.27720       -5.11050
