111
-148.55574870
P         -2.67125        2.05803        0.45544
P          0.12052        0.58957        0.26704
C         -1.52540        2.12587        1.85914
C         -0.28509        1.53555        1.74811
C         -3.62391        3.63542        0.27809
C         -3.08345        4.49727       -0.84193
C         -1.88383        2.75781        3.03289
H         -2.86219        3.20017        3.12356
C         -0.99179        2.80420        4.09044
H         -1.27088        3.29751        5.00717
C          0.25382        2.21772        3.97376
H          0.94713        2.25171        4.79800
C          0.60633        1.57660        2.79998
H          1.56721        1.09719        2.69920
Pd        -1.43841        1.24619       -1.32043
Cl        -3.13649        1.80883       -2.67116
Cl        -0.12748        0.37637       -2.92242
C         -5.06613        3.13630        0.07482
C         -4.06199        0.85492        0.67038
H         -2.03417        4.75205       -0.67529
H         -3.14536        3.97675       -1.79810
H         -3.64805        5.42760       -0.93763
H         -5.25341        3.03033       -1.00271
H         -5.78709        3.88918        0.42836
H         -4.10047        0.26741       -0.25683
C         -5.29854        1.76770        0.77736
C         -3.83607       -0.04382        1.86676
H         -3.53760        4.15963        1.23820
H         -5.52257        1.93586        1.83971
H         -6.18484        1.26114        0.36610
H         -3.72780        0.54553        2.77915
H         -4.67090       -0.73321        2.01252
H         -2.92661       -0.63625        1.74942
C         -1.07159       -3.76241        0.90241
C         -0.86366       -2.92054        2.02492
C         -0.48949       -1.60671        1.79986
C         -0.38314       -1.11073        0.52739
C         -0.67150       -1.89494       -0.55683
C         -1.06664       -3.21184       -0.40466
O         -1.24566       -5.15993        1.08605
C         -1.00217       -3.42191        3.47054
H         -0.26667       -0.95003        2.62200
H         -0.57148       -1.45728       -1.53455
C         -1.46247       -4.01559       -1.65273
C          4.57510        0.64800       -0.67134
C          3.70534        1.52461       -1.37020
C          2.35974        1.51802       -1.04014
C          1.86479        0.62993       -0.12236
C          2.68288       -0.29215        0.47699
C          4.03876       -0.33412        0.19968
O          5.98224        0.77114       -0.82057
C          4.19973        2.47517       -2.47218
H          1.67255        2.20160       -1.50782
H          2.24051       -0.98965        1.16749
C          4.90117       -1.42515        0.85367
C         -2.09877       -4.49670        3.57967
C          0.34589       -3.98894        3.94101
C         -1.40715       -2.26770        4.41600
C         -2.09577       -3.08723       -2.71539
C         -0.20941       -4.66904       -2.25452
C         -2.51283       -5.08865       -1.31393
C         -0.03495       -5.90441        1.03620
H         -2.24019       -4.80874        4.61413
H         -3.04875       -4.11441        3.20755
H         -1.84561       -5.38170        3.00110
H          0.66161       -4.82264        3.31858
H          1.12277       -3.22614        3.89202
H          0.28339       -4.34208        4.97001
H         -0.61131       -1.53150        4.51896
H         -2.29952       -1.76064        4.05044
H         -1.62380       -2.64499        5.41515
H         -2.49838       -3.66696       -3.54552
H         -2.91158       -2.50627       -2.28593
H         -1.36725       -2.39469       -3.13401
H          0.52490       -3.91203       -2.52903
H          0.26227       -5.34498       -1.54515
H         -0.45769       -5.23887       -3.14951
H         -2.83863       -5.61507       -2.21070
H         -2.11637       -5.82908       -0.62392
H         -3.38805       -4.63513       -0.84988
H          0.81657       -5.23772        0.89360
H          0.08978       -6.46000        1.96555
H         -0.07753       -6.61993        0.21530
C          6.58617        1.67397        0.09703
C          3.08658        2.72152       -3.51663
C          4.59361        3.82123       -1.84606
C          5.39664        1.87139       -3.22933
C          6.06036       -1.84073       -0.06998
C          5.44942       -0.90606        2.19135
C          4.06221       -2.69594        1.12466
H          2.68800        1.77767       -3.88783
H          2.26332        3.30007       -3.10055
H          3.47165        3.28104       -4.36874
H          5.39056        3.69842       -1.11655
H          4.93898        4.51989       -2.60767
H          3.74318        4.27195       -1.33500
H          6.25523        1.74089       -2.57540
H          5.13783        0.89581       -3.63951
H          5.70478        2.51509       -4.05283
H          6.63564       -2.65715        0.36591
H          5.68102       -2.17083       -1.03648
H          6.74390       -1.01357       -0.24498
H          6.05828       -1.66359        2.68423
H          6.06500       -0.02126        2.04811
H          4.63458       -0.63765        2.86344
H          4.69743       -3.51388        1.46386
H          3.54999       -3.02313        0.22011
H          3.31582       -2.52964        1.90015
H          7.08550        2.47291       -0.45081
H          5.83406        2.10242        0.76068
H          7.33515        1.14710        0.68801
