100
-131.97166132
C         -1.51835        3.93555       -1.37993
C         -2.30117        2.69568       -1.43989
C         -0.14150        3.58284       -1.36645
C          0.00175        2.10473       -1.49775
C          1.13649        1.51423       -2.26936
C         -1.40603        1.57538       -1.52823
C         -1.85085        0.20032       -1.99754
C         -1.00140       -0.38937       -3.10697
Cl         1.00630       -0.31182        2.76906
Cl        -1.71519       -1.71992        2.33121
C          3.16019        0.48609       -3.91308
C          2.42157        1.57505       -4.33297
C          2.90556       -0.08030       -2.67234
C          1.43545        2.08494       -3.52613
C          1.90584        0.40476       -1.86285
H         -3.38696        2.64550       -1.54334
H          0.68844        4.29200       -1.41381
H         -0.03278       -0.71052       -2.72429
H         -1.47609       -1.26006       -3.56540
H         -0.82257        0.34162       -3.89899
H          3.94303        0.08896       -4.53833
H          2.62114        2.02421       -5.29241
H          3.52274       -0.89573       -2.33232
H          0.85359        2.92814       -3.85652
H         -1.92270        4.95077       -1.37039
P          1.82120       -0.29570       -0.20317
H         -2.87458        0.30572       -2.37659
P         -2.00423       -0.97383       -0.57850
H         -2.92571       -2.84375       -1.83068
C         -1.85288       -3.84764       -0.24820
C         -2.01667       -2.69749       -1.25046
C         -3.11533       -4.09656        0.57963
H         -3.34187        0.27420        0.96427
C         -4.79512       -0.19566       -0.54530
C         -3.57416       -0.55880        0.30393
H         -4.53691        0.69407       -1.14523
C         -5.19363       -1.31547       -1.50615
H          3.56261       -1.92130       -0.55399
H          2.72647        0.64015        1.83668
C          3.63535        3.19218        1.28040
C          2.74642        2.27083        0.42576
C          2.97167        0.79490        0.78061
C          4.44957        0.42874        0.57238
C          5.37203        1.34274        1.40622
C          5.12085        2.83053        1.09188
H          3.36317        3.07979        2.33719
H          3.45142        4.24839        1.03860
H          2.99399        2.41614       -0.63307
H          1.68625        2.53447        0.51099
H          4.62698       -0.62562        0.81969
H          4.69191        0.52853       -0.49235
H          5.18995        1.16230        2.47300
H          6.42711        1.08286        1.24139
H          5.41576        3.03709        0.05534
H          5.76027        3.47400        1.71268
C          2.38642       -4.32550       -1.23769
C          1.76559       -2.91529       -1.18354
C          2.52887       -2.01705       -0.20307
C          2.55752       -2.64660        1.19889
C          3.18183       -4.05518        1.15971
C          2.42759       -4.96029        0.16587
H          3.40734       -4.25464       -1.63307
H          1.84360       -4.96723       -1.94534
H          0.72585       -2.98392       -0.84942
H          1.72230       -2.45767       -2.18122
H          3.08285       -1.99244        1.90747
H          1.53355       -2.72159        1.58157
H          4.23317       -3.97755        0.85622
H          3.19732       -4.50276        2.16330
H          1.40204       -5.11435        0.52428
H          2.87881       -5.96187        0.12881
H         -1.03824       -3.57428        0.44575
C         -1.44757       -5.13343       -0.97738
H         -3.82251       -1.39171        0.95650
C         -5.97299        0.18213        0.35882
H         -1.19580       -2.73356       -1.96760
H         -3.34132       -3.26491        1.24327
H         -3.00627       -4.98356        1.20575
H         -3.97832       -4.25709       -0.06701
H         -1.26769       -5.95152       -0.27813
H         -2.23707       -5.45101       -1.65923
H         -0.54257       -4.99441       -1.56945
H         -4.42537       -1.49902       -2.25671
H         -5.36603       -2.24589       -0.96464
H         -6.11442       -1.07127       -2.03849
H         -6.27000       -0.66640        0.97596
H         -5.71564        1.00232        1.03089
H         -6.84432        0.48657       -0.22320
Fe        -1.08534        2.65044        0.15111
C         -2.57695        2.83531        1.58073
C         -1.86971        4.09259        1.42390
C         -0.46199        3.86716        1.69721
C         -0.29734        2.46461        2.01974
C         -1.59621        1.82817        1.93139
H         -3.65425        2.68515        1.48112
H         -2.32775        5.05654        1.19096
H          0.32418        4.62584        1.70084
H          0.61609        1.97895        2.36575
H         -1.79930        0.79467        2.22114
Pd        -0.19151       -0.83884        0.90586
