111
-148.55424265
P         -2.66031        1.87405        0.01947
P          0.14771        0.47437        0.40779
C         -1.83654        1.94715        1.63308
C         -0.59029        1.37820        1.78323
C         -3.58339        3.43340       -0.35555
C         -2.84533        4.28681       -1.36379
C         -2.44771        2.55872        2.70896
H         -3.43073        2.98461        2.59266
C         -1.80156        2.60618        3.93231
H         -2.27778        3.08389        4.77292
C         -0.54981        2.03950        4.07844
H         -0.04856        2.07369        5.03173
C          0.05579        1.41813        3.00113
H          1.02447        0.95407        3.10239
Pd        -1.05373        1.14010       -1.46059
Cl        -2.47250        1.53820       -3.14956
Cl         0.62327        0.36028       -2.73858
C         -4.95203        2.91113       -0.83070
C         -4.03919        0.64209       -0.06804
H         -2.71264        3.74974       -2.30385
H         -3.39205        5.20644       -1.58492
H         -1.85203        4.56079       -1.00032
H         -4.93031        2.81196       -1.92479
H         -5.74041        3.64862       -0.61599
H         -3.87986        0.07452       -0.99480
C         -5.28996        1.53238       -0.19396
C         -4.03914       -0.27948        1.13229
H         -3.69030        3.96936        0.59598
H         -5.71614        1.68645        0.80694
H         -6.07157        1.01470       -0.77056
H         -4.87151       -0.98603        1.09430
H         -3.11243       -0.85356        1.18905
H         -4.12844        0.29071        2.05876
C         -1.38781       -3.80787        0.58513
C         -0.88588       -3.28859       -0.63537
C         -0.40988       -1.99004       -0.64438
C         -0.35810       -1.24300        0.50248
C         -0.73508       -1.78009        1.70528
C         -1.21691       -3.07592        1.78853
O         -2.10399       -5.03423        0.59443
C         -0.91190       -4.07842       -1.95251
H         -0.09763       -1.52443       -1.56243
H         -0.67603       -1.15875        2.58152
C         -1.59224       -3.64476        3.16561
C          4.66423        0.98266        0.11539
C          3.84953        2.09474        0.44878
C          2.48209        1.89869        0.55667
C          1.92050        0.67671        0.29196
C          2.69226       -0.37347       -0.13040
C          4.06389       -0.24326       -0.26911
O          6.07883        1.08745        0.19168
C          4.43054        3.49264        0.71412
H          1.83101        2.70212        0.85576
H          2.20259       -1.30399       -0.35823
C          4.87494       -1.42378       -0.82617
C          0.26610       -3.66059       -2.86204
C         -0.76776       -5.58987       -1.69966
C         -2.22761       -3.78482       -2.68965
C         -0.68792       -3.04463        4.26616
C         -3.05251       -3.28817        3.48345
C         -1.39693       -5.17120        3.20844
C         -3.50446       -4.88452        0.39549
H          0.16159       -2.63629       -3.21627
H          1.21317       -3.74530       -2.33080
H          0.31933       -4.29905       -3.74349
H         -0.72366       -6.14170       -2.63828
H          0.14285       -5.79973       -1.13952
H         -1.60694       -5.97913       -1.12886
H         -2.32109       -2.71957       -2.90035
H         -2.27299       -4.32154       -3.63682
H         -3.08787       -4.08042       -2.09372
H          0.36462       -3.16978        4.01332
H         -0.88143       -1.98320        4.41383
H         -0.86352       -3.53728        5.22224
H         -3.34731       -3.68118        4.45610
H         -3.19038       -2.20736        3.50149
H         -3.72989       -3.69587        2.73689
H         -1.59928       -5.56452        4.20435
H         -2.06361       -5.67642        2.51417
H         -0.37420       -5.43468        2.94087
H         -3.80872       -5.43391       -0.49523
H         -4.04157       -5.29649        1.24967
H         -3.76194       -3.83109        0.27774
C          6.62183        0.73211        1.45693
C          4.78350        3.62199        2.20359
C          5.67766        3.74770       -0.15198
C          3.40263        4.58968        0.35508
C          5.34155       -2.31675        0.33319
C          4.00917       -2.27439       -1.78375
C          6.08577       -0.92718       -1.63673
H          5.18889        4.60904        2.42464
H          3.89932        3.47336        2.82313
H          5.52244        2.88144        2.49961
H          5.44493        3.61352       -1.20782
H          6.05101        4.76194       -0.01274
H          6.48363        3.06346        0.10109
H          2.55209        4.58339        1.03513
H          3.85490        5.57914        0.41876
H          3.03221        4.45597       -0.66098
H          5.97877       -1.76830        1.02241
H          4.48816       -2.69185        0.89771
H          5.90482       -3.17328       -0.03634
H          4.61470       -3.02536       -2.29060
H          3.22419       -2.80566       -1.24794
H          3.54382       -1.64891       -2.54524
H          5.76379       -0.26148       -2.43684
H          6.62612       -1.76055       -2.08498
H          6.78564       -0.38037       -1.00966
H          5.82799        0.42947        2.14096
H          7.32912       -0.08781        1.33349
H          7.15884        1.58273        1.87620
