87
-129.18294279
P         -1.52021       -0.27008       -0.42506
P          1.71220        0.29179        0.23735
C         -1.08157        0.97406       -1.64423
C          1.51839       -0.80967       -1.18779
C          0.01504        0.73881       -2.46330
C          0.36677        1.70747       -3.42432
C         -0.40437        2.85323       -3.53601
C         -1.49476        3.06283       -2.71679
C         -1.83108        2.11793       -1.76739
C          2.13587       -2.02834       -1.02857
C          2.03308       -2.99890       -2.00631
C          1.29343       -2.74551       -3.14035
C          0.64530       -1.53478       -3.31437
C          0.76376       -0.53769       -2.32683
Cl         0.94771       -0.20245        3.37180
Cl        -1.70747       -1.80872        2.42455
H         -2.07946        3.96292       -2.81320
H         -2.68258        2.26942       -1.12517
H          2.69576       -2.22179       -0.12554
H          2.52046       -3.95131       -1.87714
H         -0.13553        3.59192       -4.27190
H          1.19904       -3.50203       -3.90088
C         -2.45093       -4.18557       -2.53361
C         -1.64241       -4.20183       -1.40530
C         -1.38897       -3.00104       -0.75428
C         -1.90555       -1.82210       -1.23831
C         -2.70167       -1.81275       -2.35950
C         -2.97974       -3.00141       -3.00864
H         -2.66488       -5.11230       -3.03820
C         -1.08520       -5.47634       -0.87708
H         -0.78546       -2.99315        0.13728
H         -3.09318       -0.87607       -2.72446
H         -3.60362       -3.00187       -3.88735
C         -5.16479        1.10273        1.94376
C         -5.23318       -0.04097        1.17366
C         -4.12920       -0.45129        0.45096
C         -2.96917        0.28587        0.49692
C         -2.89909        1.42492        1.26478
C         -3.99521        1.84770        2.00644
H         -6.02331        1.42430        2.50837
H         -6.14372       -0.61646        1.13968
H         -4.16510       -1.34972       -0.14310
H         -1.98691        1.99476        1.28772
C         -3.91593        3.08406        2.83089
C          6.07154       -0.02468        1.52214
C          5.74403        0.15826        0.19314
C          4.41671        0.24745       -0.18442
C          3.42845        0.15366        0.76845
C          3.75580       -0.02677        2.09070
C          5.08175       -0.12745        2.48931
H          7.10430       -0.08832        1.82006
H          6.52127        0.23283       -0.54967
H          4.14558        0.38419       -1.21956
H          2.97076       -0.09231        2.82219
C          5.43031       -0.29933        3.92610
C          0.79977        4.71448       -0.28508
C          1.66885        4.08993       -1.15763
C          1.95619        2.74708       -1.00071
C          1.36291        2.03980        0.01773
C          0.52828        2.66860        0.91326
C          0.22840        4.01798        0.77068
H          0.56426        5.75737       -0.41240
H          2.11566        4.64518       -1.96596
H          2.62865        2.24299       -1.67565
H          0.14328        2.11706        1.75419
C         -0.70366        4.69673        1.71076
Pd        -0.12839       -0.55605        1.44052
C          1.54948        1.53014       -4.31118
C         -0.17434       -1.32517       -4.54062
H          1.23944        1.31373       -5.33425
H          2.15981        2.43425       -4.33033
H          2.18505        0.71180       -3.97076
H          0.46064       -1.11041       -5.40093
H         -0.76174       -2.21493       -4.77165
H         -0.87210       -0.49608       -4.41937
H         -1.74009       -5.89769       -0.11320
H         -0.97079       -6.21641       -1.67035
H         -0.10342       -5.31741       -0.42841
H         -3.97807        3.97397        2.20312
H         -4.72835        3.12890        3.55746
H         -2.97657        3.12306        3.38411
H          6.34489       -0.88251        4.04250
H          5.58343        0.66845        4.40557
H          4.63553       -0.81856        4.46368
H         -1.70863        4.74564        1.28950
H         -0.75986        4.16598        2.66211
H         -0.37631        5.71614        1.91983
