105
-153.07043013
Cl         0.32998        2.95458        2.60134
Pd        -0.21985        1.71710        0.79594
P         -0.74006        0.52512       -1.17433
N          0.38066       -0.75024       -1.63601
C          0.53923       -2.12430       -1.41265
C          0.01841       -2.82744       -0.29398
C          0.38602       -4.17374       -0.08506
C         -0.01438       -4.85778        1.20139
C          0.87548       -6.05873        1.55197
C          0.99091       -7.00183        0.35074
C          1.60384       -6.28101       -0.86197
C          1.18222       -4.83881       -1.02071
C          1.65360       -4.14015       -2.12472
C          1.35846       -2.81417       -2.30502
H          1.75978       -2.28050       -3.14928
H          2.28274       -4.65123       -2.83394
H          2.69776       -6.31179       -0.78998
H          1.57575       -7.89493        0.61229
H          1.87447       -5.70095        1.83105
H          0.00088       -4.12537        2.01833
C         -0.72460       -2.11517        0.77273
C          0.00229       -1.23098        1.60612
C         -0.65692       -0.60342        2.66259
C         -1.98439       -0.84939        2.90221
C         -2.71131       -1.73347        2.11169
C         -4.15568       -1.99098        2.47961
C         -4.91567       -2.96289        1.55500
C         -3.98344       -4.01983        0.95221
C         -2.85332       -3.33109        0.17714
C         -2.07961       -2.37140        1.04132
H         -2.18378       -4.06470       -0.28520
H         -4.53616       -4.72037        0.31044
H         -5.38686       -2.39915        0.74091
H         -4.67819       -1.02701        2.52260
H         -2.48024       -0.35619        3.72101
H         -0.10824        0.08724        3.27804
N          1.35235       -0.98468        1.33968
P          1.86298        0.68771        1.11782
C          2.66555        0.90726       -0.46782
C          2.34339        2.00276       -1.23385
C          2.82046        2.09845       -2.52725
C          3.61539        1.09534       -3.06291
C          3.96106        0.01632       -2.26090
C          3.48713       -0.07773       -0.96465
H          3.72911       -0.93122       -0.35147
H          4.59380       -0.75704       -2.66199
C          4.11895        1.19623       -4.46039
H          2.55831        2.94611       -3.13722
H          1.70078        2.76947       -0.83082
C          2.85317        1.30793        2.46782
C          2.88690        0.59635        3.64226
C          3.62650        1.07086        4.71095
C          4.32775        2.26517        4.60752
C          4.28593        2.96376        3.40776
C          3.54601        2.48742        2.34038
H          3.50052        3.03206        1.41058
H          4.83396        3.88585        3.31563
C          5.14143        2.76799        5.74889
H          3.66175        0.51594        5.63281
H          2.33707       -0.32863        3.71303
H          1.75226       -1.50534        0.57204
H          1.20292       -0.24483       -1.94548
C         -0.61204        1.74027       -2.49389
C         -0.95119        3.05827       -2.30429
C         -0.81179        3.96427       -3.33768
C         -0.34415        3.55393       -4.57855
C         -0.01500        2.21741       -4.75780
C         -0.15429        1.31451       -3.71894
H          0.10369        0.27686       -3.85638
H          0.35756        1.88888       -5.71295
C         -0.16080        4.53620       -5.68252
H         -1.06583        4.99945       -3.18596
H         -1.33172        3.37169       -1.34760
C         -2.41134       -0.10528       -1.28703
C         -2.66931       -0.98459       -2.31250
C         -3.95996       -1.43834       -2.52523
C         -4.99804       -1.01864       -1.70485
C         -4.72001       -0.11874       -0.68423
C         -3.43279        0.34197       -0.48405
H         -3.22710        1.08138        0.27013
H         -5.52074        0.23147       -0.05557
C         -6.38318       -1.51419       -1.93537
H         -4.16687       -2.12718       -3.32631
H         -1.85691       -1.30954       -2.94374
Cl        -2.10572        2.93231        0.63822
H          1.35825       -6.81968       -1.78608
H          0.49290       -6.59008        2.43492
H         -0.00792       -7.37281        0.08805
H         -1.05445       -5.19182        1.12425
H         -3.55358       -4.62756        1.75805
H         -3.28129       -2.77317       -0.65944
H         -4.17726       -2.37658        3.50608
H         -5.74635       -3.44127        2.09242
H          5.07588        1.71890       -4.49088
H          4.25996        0.20788       -4.90014
H          3.41654        1.74168       -5.09244
H          5.18783        3.85788        5.74886
H          4.71579        2.45575        6.70353
H          6.16221        2.38726        5.69449
H         -0.90683        5.33034       -5.63018
H          0.82638        4.99735       -5.63006
H         -0.25671        4.05625       -6.65741
H         -6.78781       -1.11431       -2.86611
H         -6.40104       -2.60315       -2.00014
H         -7.05192       -1.21869       -1.12579
