105
-153.07131072
Cl        -0.02995        1.93305        3.02892
Pd        -0.59891        1.13964        0.99146
P         -1.24038        0.48451       -1.15418
N         -0.93953       -1.07554       -1.90209
C          0.08243       -1.98530       -1.61596
C          0.32154       -2.47914       -0.30600
C          1.34189       -3.43073       -0.10264
C          1.55704       -3.98371        1.28642
C          2.43359       -5.24438        1.34431
C          3.65837       -5.10251        0.43638
C          3.22857       -4.87820       -1.02100
C          2.11239       -3.87618       -1.18012
C          1.83658       -3.40300       -2.45649
C          0.83999       -2.48840       -2.67364
H          0.64292       -2.12962       -3.66877
H          2.42393       -3.76378       -3.28390
H          4.08553       -4.55090       -1.62369
H          4.26337       -4.25168        0.77388
H          2.73851       -5.46148        2.37780
H          2.00658       -3.19762        1.90381
C         -0.62142       -2.18333        0.79927
C         -0.14860       -1.59229        2.00472
C         -1.02716       -1.49539        3.08870
C         -2.32439       -1.92598        2.98702
C         -2.80790       -2.49629        1.81595
C         -4.24138       -2.97335        1.80108
C         -4.74758       -3.44639        0.42784
C         -3.65912       -4.21621       -0.32480
C         -2.42175       -3.33195       -0.53399
C         -1.95193       -2.63923        0.72140
H         -1.59799       -3.92919       -0.94451
H         -4.03873       -4.59466       -1.28450
H         -5.05260       -2.57948       -0.17097
H         -4.88158       -2.16815        2.18343
H         -2.98895       -1.82589        3.82853
H         -0.67951       -1.03707        3.99790
N          1.13004       -1.02642        2.11269
P          1.55825        0.17580        0.89657
C          2.66030       -0.40482       -0.38278
C          2.49843        0.06908       -1.65993
C          3.38609       -0.31082       -2.64967
C          4.45174       -1.15136       -2.35529
C          4.60757       -1.60317       -1.05115
C          3.71628       -1.22313       -0.06364
H          3.83677       -1.55907        0.95397
H          5.42925       -2.25720       -0.81444
C          5.38294       -1.59802       -3.42748
H          3.25188        0.04019       -3.65847
H          1.67452        0.72736       -1.87394
C          2.40087        1.59913        1.59805
C          3.18130        1.47025        2.72138
C          3.83204        2.57822        3.23325
C          3.70369        3.81882        2.62260
C          2.92801        3.92206        1.47572
C          2.27868        2.81351        0.96417
H          1.67121        2.89135        0.07559
H          2.83371        4.87629        0.98621
C          4.41908        5.00783        3.16282
H          4.44509        2.48538        4.11341
H          3.28542        0.50547        3.19048
H          1.31975       -0.57449        2.99785
H         -1.21926       -0.96611       -2.86841
C         -0.53212        1.82381       -2.11663
C         -0.58393        3.10082       -1.60904
C         -0.00904        4.14506       -2.30822
C          0.60853        3.91875       -3.53076
C          0.64036        2.62491       -4.03381
C          0.06465        1.58225       -3.33144
H          0.09898        0.57713       -3.71755
H          1.12534        2.43804       -4.97672
C          1.25898        5.03623       -4.26940
H         -0.03668        5.14381       -1.90710
H         -1.08675        3.27364       -0.67039
C         -3.02380        0.68310       -1.17634
C         -3.78921        0.06513       -0.21921
C         -5.16310        0.22094       -0.22755
C         -5.77949        0.99420       -1.20133
C         -4.99070        1.59651       -2.17211
C         -3.61609        1.44382       -2.15634
H         -3.00142        1.91861       -2.90420
H         -5.45946        2.18951       -2.93875
C         -7.26094        1.14213       -1.22575
H         -5.76583       -0.25223        0.52856
H         -3.30434       -0.52525        0.53966
Cl        -2.49408        2.34530        1.20016
H          2.90742       -5.82959       -1.46162
H          1.84384       -6.11228        1.02354
H          4.31239       -5.98186        0.52210
H          0.57867       -4.18799        1.73942
H         -3.37683       -5.10521        0.25303
H         -2.63944       -2.56950       -1.29063
H         -4.33811       -3.78975        2.52684
H         -5.65335       -4.05967        0.53562
H          5.47883       -0.84054       -4.20663
H          6.37978       -1.79059       -3.02838
H          5.02366       -2.51670       -3.89337
H          3.86774        5.92607        2.95571
H          4.54373        4.93441        4.24406
H          5.40934        5.10093        2.71489
H          2.30044        5.14716       -3.96431
H          1.24029        4.86069       -5.34592
H          0.75006        5.98236       -4.07983
H         -7.67654        1.10253       -0.21789
H         -7.55422        2.09586       -1.66665
H         -7.72039        0.34460       -1.81125
