58
-89.86563547
P          1.80253       -0.41999        0.62451
C          1.54372        1.35819        0.76758
C          1.51329        1.99206        1.98857
C          1.31224        3.35863        2.05060
C          1.15497        4.08640        0.88830
C          1.20643        3.45157       -0.33589
C          1.40665        2.08436       -0.39365
H          1.45800        1.57763       -1.34466
H          1.66244        1.42601        2.89282
C          3.56603       -0.63805        0.32495
C          4.04615       -1.33411       -0.75953
C          5.40725       -1.48696       -0.94001
C          6.28654       -0.93675       -0.02907
C          5.80562       -0.23405        1.05783
C          4.44090       -0.08526        1.23365
H          4.05244        0.46546        2.07590
H          3.35029       -1.74388       -1.47040
C          1.42920       -1.32021        2.19266
C         -0.04190       -1.57480        2.49126
C         -0.91920       -0.33059        2.42985
P         -1.53382       -0.05152        0.71731
C         -3.02215       -1.04104        0.52194
C         -2.94251       -2.39400        0.28315
C         -4.10080       -3.13636        0.14011
C         -5.33176       -2.51875        0.24043
C         -5.40767       -1.16141        0.48210
C         -4.24728       -0.42157        0.62346
H         -4.29000        0.63991        0.80881
H         -1.97702       -2.86385        0.18876
C         -1.89076        1.67299        0.36887
C         -2.02863        2.59974        1.37716
C         -2.31018        3.91693        1.06222
C         -2.45713        4.29449       -0.25829
C         -2.33136        3.35817       -1.26538
C         -2.05125        2.04249       -0.94665
H         -1.96477        1.28952       -1.71395
H         -1.91605        2.29354        2.40432
Pd         0.01600       -0.80462       -0.84670
Cl         1.42140       -1.78350       -2.28651
Cl        -1.72463       -1.00594       -2.26149
H         -1.81039       -0.42740        3.05537
H         -0.38246        0.55094        2.77805
H         -0.43615       -2.32037        1.78751
H         -0.13018       -2.04703        3.48235
H          1.98136       -2.26188        2.13890
H          1.88979       -0.74425        2.99677
H          1.27996        3.85524        3.00648
H          1.08615        4.01768       -1.24485
H          5.78029       -2.03178       -1.79173
H          6.49074        0.19860        1.76825
H         -4.04119       -4.19451       -0.05498
H         -6.36780       -0.67805        0.55799
H         -2.41137        4.64803        1.84740
H         -2.45226        3.64958       -2.29568
H          0.99311        5.15088        0.93649
H          7.34902       -1.05374       -0.16773
H         -6.23453       -3.09650        0.12667
H         -2.67341        5.32160       -0.50304
