171
-217.83882538
P         -1.50326        0.18370       -0.28761
P          1.67909       -0.66525        0.25679
C         -0.62534        0.89611       -1.69211
C          0.94195       -1.78522       -0.95542
C          0.20006        0.07252       -2.44652
C          0.92099        0.62270       -3.52322
C          0.75552        1.96514       -3.82523
C         -0.08461        2.76405       -3.07717
C         -0.77337        2.22383       -2.00917
C          0.98126       -3.11403       -0.60423
C          0.38540       -4.06597       -1.40891
C         -0.26594       -3.67283       -2.55810
C         -0.33211       -2.33844       -2.92172
C          0.29427       -1.37111       -2.11317
Cl         0.97334       -0.63165        3.42992
Cl        -2.12525       -1.26062        2.62066
C         -1.09498       -1.96264       -4.14395
C          1.83582       -0.22534       -4.33680
H         -0.19966        3.80747       -3.32138
H         -1.43075        2.84016       -1.42112
H          1.47308       -3.40288        0.31308
H          0.42031       -5.10714       -1.13279
H          1.29042        2.38435       -4.66038
H         -0.74599       -4.40684       -3.18325
C         -4.37284       -2.94282       -1.87624
C         -3.59864       -3.25364       -0.76577
C         -2.73904       -2.27753       -0.28096
C         -2.64730       -1.05639       -0.89903
C         -3.40051       -0.77594       -2.01310
C         -4.28961       -1.71563       -2.52198
H         -5.07030       -3.67458       -2.23974
H         -2.14075       -2.45984        0.59280
H         -3.27201        0.17532       -2.49869
C         -4.01145        3.46240        1.64771
C         -4.20394        3.13716        0.31140
C         -3.42498        2.12256       -0.22781
C         -2.47429        1.47862        0.52619
C         -2.30154        1.81918        1.84740
C         -3.07445        2.80976        2.43748
H         -4.60727        4.23631        2.09378
H         -3.55977        1.83938       -1.25687
H         -1.56742        1.30112        2.43413
C          5.70560       -2.42295        1.37426
C          4.87614       -1.98069        2.39837
C          3.63898       -1.46029        2.04889
C          3.24845       -1.39736        0.73664
C          4.07646       -1.84584       -0.26328
C          5.33096       -2.36265        0.03737
H          6.67060       -2.82704        1.61594
H          2.96401       -1.10689        2.80667
H          3.73135       -1.79080       -1.28188
C          2.79256        3.62539       -0.71907
C          1.74203        3.40784        0.16531
C          1.36944        2.09443        0.42183
C          2.02980        1.04804       -0.18042
C          3.07469        1.28551       -1.03918
C          3.47917        2.58185       -1.32797
H          3.09888        4.63314       -0.92229
H          0.56987        1.89047        1.11111
H          3.60295        0.44988       -1.46448
Pd        -0.25942       -0.60853        1.56051
C         -3.40290       -5.72625       -1.13772
C         -3.71963       -4.63194       -0.10188
C         -5.15295       -4.81408        0.42840
C         -2.73768       -4.78120        1.07757
H         -2.39648       -5.59897       -1.53526
H         -3.46517       -6.71755       -0.68919
H         -4.09960       -5.69490       -1.97448
H         -5.26652       -5.77833        0.92345
H         -5.39765       -4.03343        1.14846
H         -5.88255       -4.76498       -0.37910
H         -2.82149       -5.76977        1.52848
H         -1.70673       -4.65479        0.74768
H         -2.94345       -4.04643        1.85563
C         -6.65071       -1.24408       -3.18555
C         -5.21230       -1.40157       -3.70912
C         -5.16229       -2.54538       -4.74096
C         -4.79755       -0.09696       -4.41868
H         -6.70741       -0.44124       -2.45068
H         -7.33940       -1.00967       -3.99704
H         -6.99458       -2.16008       -2.70589
H         -5.51263       -3.48487       -4.31617
H         -5.79328       -2.31911       -5.60038
H         -4.14691       -2.69811       -5.10418
H         -4.89405        0.76227       -3.75570
H         -3.76581       -0.15120       -4.76542
H         -5.43011        0.08904       -5.28654
C         -5.98201        4.95426        0.18072
C         -5.23261        3.84470       -0.58118
C         -6.26055        2.81361       -1.08336
C         -4.50678        4.48092       -1.78194
H         -6.70264        5.45050       -0.46926
H         -6.53069        4.54591        1.02921
H         -5.29107        5.71320        0.54745
H         -7.01429        3.28728       -1.71206
H         -5.78139        2.03085       -1.66986
H         -6.76924        2.33775       -0.24524
H         -5.20766        5.01511       -2.42314
H         -3.75079        5.18923       -1.44323
H         -4.00889        3.72659       -2.39020
C         -1.86869        2.30987        4.62535
C         -2.93602        3.17360        3.92301
C         -4.28478        2.93944        4.62832
C         -2.53300        4.65335        4.05090
H         -1.78936        2.57428        5.67955
H         -2.12164        1.25123        4.56953
H         -0.88658        2.45258        4.17688
H         -5.06828        3.56698        4.20537
H         -4.59586        1.90005        4.52505
H         -4.21358        3.16672        5.69182
H         -2.41100        4.93568        5.09644
H         -1.59017        4.84062        3.53919
H         -3.28584        5.30835        3.61396
C          4.24991       -2.89966        4.64522
C          5.27397       -2.04051        3.87991
C          5.28587       -0.61321        4.45810
C          6.67202       -2.65888        4.07151
H          4.51601       -2.97781        5.69912
H          3.25009       -2.47125        4.58562
H          4.20710       -3.90697        4.23161
H          5.98772        0.01724        3.91255
H          4.30118       -0.15182        4.39221
H          5.58134       -0.61943        5.50706
H          6.93614       -2.69724        5.12828
H          6.70634       -3.67770        3.68598
H          7.43481       -2.06979        3.56269
C          6.57282       -4.35027       -0.85115
C          6.29339       -2.85034       -1.05472
C          7.61081       -2.05769       -0.96478
C          5.70197       -2.64821       -2.46430
H          7.24195       -4.73095       -1.62262
H          7.03742       -4.53823        0.11614
H          5.64663       -4.92311       -0.89433
H          7.42621       -0.98998       -1.08139
H          8.10104       -2.20942       -0.00396
H          8.30592       -2.36696       -1.74518
H          6.39976       -2.98910       -3.22899
H          4.77771       -3.21248       -2.58752
H          5.49285       -1.59551       -2.65459
C         -0.44181        4.60167        0.52779
C          1.04654        4.55813        0.91117
C          1.67283        5.92438        0.57059
C          1.18645        4.32663        2.42733
H         -0.96167        5.39698        1.06139
H         -0.55911        4.78307       -0.53999
H         -0.93455        3.66249        0.76867
H          1.57618        6.14687       -0.49194
H          1.17597        6.72408        1.11985
H          2.72946        5.94913        0.83655
H          0.74063        5.14541        2.99128
H          0.69704        3.40329        2.73258
H          2.23660        4.25618        2.70987
C          5.94840        2.22358       -1.49558
C          4.71527        2.80511       -2.21192
C          4.96013        4.30172       -2.48362
C          4.52552        2.09383       -3.56306
H          6.09706        2.70752       -0.53051
H          5.83201        1.15493       -1.31769
H          6.85058        2.36796       -2.08968
H          4.09828        4.75616       -2.97219
H          5.16003        4.84258       -1.55889
H          5.82195        4.43994       -3.13644
H          4.40454        1.01961       -3.43164
H          3.64417        2.47601       -4.07618
H          5.38705        2.25227       -4.21153
H         -2.08912       -2.40965       -4.12437
H          2.39667       -0.91387       -3.70255
H         -0.58911       -2.31326       -5.04466
H         -1.22253       -0.88255       -4.22416
H          2.55573        0.38019       -4.88858
H          1.27820       -0.81588       -5.06414
