171
-217.84706159
P         -1.58692        0.42544       -0.26399
P          1.62312       -0.38940       -0.31402
C         -0.85703        1.37872       -1.59821
C          0.85943       -1.35154       -1.62236
C         -0.09296        0.75479       -2.57831
C          0.52916        1.55175       -3.55825
C          0.33797        2.92355       -3.53735
C         -0.44086        3.51956       -2.56776
C         -1.03154        2.74080       -1.59233
C          1.03053       -2.71414       -1.62241
C          0.41381       -3.49074       -2.58318
C         -0.38222       -2.89166       -3.53660
C         -0.56818       -1.51904       -3.55331
C          0.07395       -0.72526       -2.58331
Cl         1.58686        0.36338        2.94739
Cl        -1.57537       -0.42925        2.86882
C         -1.43139       -0.91034       -4.60232
C          1.38534        0.94933       -4.61671
H         -0.58553        4.58750       -2.56722
H         -1.63130        3.19657       -0.82092
H          1.65071       -3.17327       -0.86994
H          0.55363       -4.55933       -2.58557
H          0.81303        3.52754       -4.29199
H         -0.87319       -3.49362       -4.28260
C         -3.89573       -3.21742       -1.61254
C         -2.91150       -3.37092       -0.64442
C         -2.20395       -2.24123       -0.25376
C         -2.45808       -1.02753       -0.84113
C         -3.41953       -0.89526       -1.81313
C         -4.16902       -1.99512       -2.21372
H         -4.48463       -4.07242       -1.88877
H         -1.46186       -2.29263        0.52376
H         -3.59061        0.07849       -2.24007
C         -4.45112        2.88647        2.25709
C         -4.95862        1.90319        1.41699
C         -4.05620        1.18282        0.64817
C         -2.70985        1.44277        0.71127
C         -2.22539        2.42176        1.54360
C         -3.09118        3.16017        2.34166
H         -5.12512        3.44839        2.87588
H         -4.40947        0.39583        0.00576
H         -1.16285        2.58760        1.58402
C          4.39624       -2.87006        2.28610
C          3.03898       -3.16906        2.28449
C          2.21237       -2.42706        1.45113
C          2.72305       -1.40982        0.68338
C          4.06395       -1.11696        0.71243
C          4.93274       -1.85144        1.50887
H          5.05835       -3.43416        2.91547
H          1.15549       -2.62935        1.41491
H          4.42661       -0.29833        0.11734
C          3.94936        3.19969       -1.77537
C          2.95998        3.38959       -0.81915
C          2.25022        2.27523       -0.38951
C          2.51167        1.03905       -0.92544
C          3.48043        0.86998       -1.88434
C          4.22789        1.95558       -2.32661
H          4.53593        4.04471       -2.08530
H          1.49416        2.35841        0.37189
H          3.65522       -0.11968       -2.27124
Pd         0.03998        0.02630        1.36040
C         -1.43865       -4.72153        0.92050
C         -2.67029       -4.74391       -0.00405
C         -2.42766       -5.79326       -1.10539
C         -3.90518       -5.13559        0.82587
H         -1.58914       -4.04286        1.75954
H         -1.24257       -5.71206        1.33066
H         -0.55242       -4.40417        0.37195
H         -2.21027       -6.76940       -0.67212
H         -3.29830       -5.90422       -1.75025
H         -1.58271       -5.50625       -1.73018
H         -3.76206       -6.10318        1.30655
H         -4.09564       -4.39608        1.60352
H         -4.79507       -5.19943        0.20043
C         -5.36328       -0.48545       -3.87949
C         -5.32631       -1.87614       -3.21564
C         -6.65317       -2.09715       -2.46685
C         -5.17453       -2.93831       -4.32155
H         -4.42854       -0.27169       -4.39647
H         -6.16774       -0.42848       -4.61263
H         -5.53684        0.29867       -3.14313
H         -7.50325       -2.01051       -3.14333
H         -6.68644       -3.08598       -2.01046
H         -6.77560       -1.35982       -1.67371
H         -4.21968       -2.83162       -4.83446
H         -5.22488       -3.94774       -3.91583
H         -5.96691       -2.84214       -5.06368
C         -6.93062        1.78904       -0.12595
C         -6.45415        1.57016        1.32209
C         -7.29721        2.45931        2.25569
C         -6.67038        0.09767        1.72015
H         -7.99358        1.56974       -0.22494
H         -6.76819        2.82207       -0.43277
H         -6.39185        1.14602       -0.82064
H         -7.00545        2.32203        3.29674
H         -7.18530        3.51293        2.00045
H         -8.35537        2.21093        2.17447
H         -7.72728       -0.16567        1.68333
H         -6.13608       -0.57687        1.05198
H         -6.31142       -0.08316        2.73308
C         -3.23985        5.57311        3.01953
C         -2.58662        4.21527        3.33612
C         -1.05728        4.38165        3.25911
C         -2.95625        3.77686        4.76492
H         -2.87921        6.34647        3.69754
H         -3.00804        5.88276        2.00056
H         -4.32373        5.52527        3.11667
H         -0.75448        4.70084        2.26307
H         -0.71242        5.13524        3.96690
H         -0.54673        3.44843        3.49659
H         -2.51714        2.80571        4.99289
H         -2.59213        4.49402        5.50029
H         -4.03550        3.69234        4.88637
C          1.19338       -3.75188        3.89014
C          2.43823       -4.28444        3.15143
C          3.44194       -4.78638        4.20783
C          2.04335       -5.46161        2.24410
H          1.44624       -2.87524        4.48609
H          0.40502       -3.46579        3.19613
H          0.78302       -4.50842        4.55857
H          4.31022       -5.24978        3.74020
H          3.78464       -3.96713        4.83972
H          2.98185       -5.53448        4.85333
H          1.58172       -6.26338        2.82014
H          1.33669       -5.14429        1.47930
H          2.91852       -5.86813        1.73753
C          6.80261       -1.09844        2.99553
C          6.43637       -1.54766        1.56965
C          6.82844       -0.42742        0.58584
C          7.23078       -2.81459        1.20149
H          7.86291       -0.85732        3.06909
H          6.23360       -0.21252        3.27687
H          6.58582       -1.87946        3.72344
H          6.31817        0.50494        0.82710
H          7.90048       -0.23481        0.62510
H          6.57934       -0.70409       -0.43844
H          8.30285       -2.61853        1.21007
H          7.03606       -3.62444        1.90341
H          6.95933       -3.16231        0.20486
C          2.48239        5.79224       -1.38249
C          2.71506        4.78805       -0.23757
C          3.94540        5.21209        0.58350
C          1.47816        4.80680        0.68006
H          1.64453        5.47945       -2.00426
H          2.25958        6.78459       -0.99081
H          3.35943        5.87898       -2.02237
H          4.12934        4.50560        1.39275
H          4.83950        5.24812       -0.03814
H          3.80120        6.19928        1.02217
H          1.28930        5.81277        1.05459
H          0.58925        4.47970        0.14126
H          1.62018        4.15625        1.54274
C          5.19172        2.80315       -4.49430
C          5.37731        1.80639       -3.33393
C          5.43499        0.38228       -3.92020
C          6.70854        2.09752       -2.61767
H          5.98576        2.69142       -5.23248
H          4.24056        2.64115       -4.99900
H          5.21193        3.83367       -4.14245
H          5.62781       -0.35614       -3.14226
H          4.49990        0.12452       -4.41676
H          6.23486        0.29899       -4.65585
H          6.72712        3.11135       -2.21902
H          6.85749        1.40984       -1.78606
H          7.55144        1.98983       -3.30010
H         -1.77088        0.08464       -4.31138
H          1.68604       -0.06676       -4.35792
H         -2.31622       -1.52189       -4.77932
H         -0.89302       -0.82175       -5.54686
H          2.29424        1.53413       -4.75729
H          0.85895        0.91458       -5.57151
