105
-153.07142772
Cl        -0.01884        1.89322        3.02325
Pd        -0.59987        1.12282        0.97911
P         -1.25776        0.48933       -1.16527
N         -0.95938       -1.07667       -1.90055
C          0.07333       -1.97620       -1.61797
C          0.32000       -2.47162       -0.30959
C          1.34831       -3.41589       -0.11177
C          1.57174       -3.97194        1.27474
C          2.45502       -5.22816        1.32514
C          3.67733       -5.07503        0.41576
C          3.24365       -4.84637       -1.03977
C          2.11950       -3.85219       -1.19254
C          1.83694       -3.37737       -2.46677
C          0.83257       -2.47020       -2.67882
H          0.62991       -2.11070       -3.67256
H          2.42502       -3.73114       -3.29669
H          4.09720       -4.50937       -1.64194
H          4.27808       -4.22237        0.75619
H          2.76289       -5.44863        2.35704
H          2.02013       -3.18559        1.89259
C         -0.62226       -2.18541        0.79881
C         -0.15052       -1.60098        2.00817
C         -1.03103       -1.50803        3.09091
C         -2.32876       -1.93594        2.98519
C         -2.81081       -2.50121        1.81119
C         -4.24490       -2.97667        1.79258
C         -4.74732       -3.45438        0.41953
C         -3.65514       -4.22181       -0.33012
C         -2.42072       -3.33337       -0.53863
C         -1.95275       -2.64147        0.71794
H         -1.59528       -3.92722       -0.95067
H         -4.03185       -4.60314       -1.28982
H         -5.05476       -2.58988       -0.18156
H         -4.88538       -2.16925        2.16975
H         -2.99465       -1.83828        3.82594
H         -0.68431       -1.05463        4.00292
N          1.12941       -1.03905        2.12406
P          1.56601        0.17544        0.92347
C          2.65712       -0.39127       -0.37143
C          2.47702        0.08747       -1.64439
C          3.35741       -0.27908       -2.64555
C          4.43371       -1.11143       -2.36713
C          4.60740       -1.56896       -1.06725
C          3.72363       -1.20198       -0.06811
H          3.85865       -1.54154        0.94649
H          5.43737       -2.21688       -0.84293
C          5.35787       -1.54340       -3.45137
H          3.20935        0.07633       -3.65086
H          1.64488        0.73916       -1.84653
C          2.41357        1.58867        1.63823
C          3.19093        1.44727        2.76226
C          3.84524        2.54828        3.28447
C          3.72336        3.79436        2.68366
C          2.95043        3.91029        1.53612
C          2.29737        2.80875        1.01416
H          1.69206        2.89627        0.12495
H          2.86129        4.86889        1.05423
C          4.44246        4.97603        3.23495
H          4.45604        2.44569        4.16510
H          3.28967        0.47826        3.22375
H          1.31768       -0.59593        3.01398
H         -1.24241       -0.97116       -2.86634
C         -0.53701        1.82159       -2.12707
C         -0.57177        3.09796       -1.61648
C          0.01481        4.13626       -2.31489
C          0.63847        3.90223       -3.53294
C          0.63775        2.61233       -4.04699
C          0.05048        1.57552       -3.34551
H          0.06721        0.57158       -3.73578
H          1.10472        2.42414       -4.99870
C          1.25708        5.02203       -4.29494
H         -0.01011        5.13665       -1.91776
H         -1.07192        3.27510       -0.67716
C         -3.03992        0.69526       -1.18723
C         -3.62958        1.47848       -2.15092
C         -5.00357        1.63705       -2.16243
C         -5.79421        1.01830       -1.20358
C         -5.18044        0.22259       -0.24630
C         -3.80715        0.06120       -0.24209
H         -3.32406       -0.54631        0.50435
H         -5.78449       -0.26359        0.50044
C         -7.27497        1.17368       -1.22448
H         -5.47055        2.24741       -2.91643
H         -3.01346        1.96602       -2.88929
Cl        -2.49175        2.33143        1.19488
H          2.92927       -5.79792       -1.48491
H          1.86934       -6.09760        1.00108
H          4.33652       -5.95102        0.49622
H          0.59634       -4.18249        1.73122
H         -3.37060       -5.10884        0.24965
H         -2.64166       -2.57046       -1.29380
H         -4.34519       -3.79018        2.52110
H         -5.65101       -4.07072        0.52728
H          6.36175       -1.72390       -3.06446
H          5.00509       -2.46556       -3.91532
H          5.43477       -0.78289       -4.22967
H          5.43178        5.07208        2.78556
H          3.89238        5.89750        3.03916
H          4.56967        4.89074        4.31502
H          0.52736        5.48948       -4.95743
H          1.64213        5.78996       -3.62251
H          2.08973        4.67007       -4.90564
H         -7.56248        2.15010       -1.61685
H         -7.73603        0.40921       -1.85137
H         -7.69413        1.08448       -0.22128
