58
-89.86195144
P          1.72801       -0.20213        0.83429
C          1.84653        1.58374        1.02278
C          0.83339        2.39768        0.57336
C          0.91393        3.76583        0.74553
C          2.01379        4.31393        1.37427
C          3.02560        3.49514        1.83611
C          2.93784        2.12494        1.66378
H          3.71578        1.47311        2.02908
H         -0.03261        1.96144        0.11137
C          3.28939       -0.88312        0.25616
C          3.53466       -2.23130        0.38775
C          4.71853       -2.76572       -0.08893
C          5.64526       -1.94753       -0.70382
C          5.38850       -0.59881       -0.84913
C          4.20416       -0.06789       -0.37097
H          3.98295        0.97946       -0.49794
H          2.79206       -2.86700        0.84285
C          1.31002       -0.89774        2.49114
C         -0.17874       -1.10393        2.72100
C         -1.02919        0.11697        2.38231
P         -1.61158        0.05657        0.63427
C         -2.89561       -1.19951        0.54858
C         -4.20778       -0.81521        0.70788
C         -5.21458       -1.76259        0.65540
C         -4.89850       -3.09012        0.44469
C         -3.58080       -3.47152        0.28670
C         -2.57650       -2.52208        0.34063
H         -1.54597       -2.80750        0.20370
H         -4.43865        0.22591        0.86851
C         -2.29645        1.63996        0.11818
C         -2.61797        2.60876        1.04254
C         -3.11956        3.82521        0.61591
C         -3.29994        4.06220       -0.73257
C         -2.98498        3.08496       -1.65554
C         -2.48356        1.87132       -1.22474
H         -2.23966        1.09229       -1.92797
H         -2.47247        2.41570        2.09282
Pd         0.11769       -0.57453       -0.80590
Cl         1.73826       -1.27757       -2.18665
Cl        -1.56056       -1.03199       -2.23696
H         -1.93208        0.16621        2.99613
H         -0.47465        1.04160        2.55011
H         -0.53042       -1.95658        2.12406
H         -0.34467       -1.40316        3.76802
H          1.86360       -1.82984        2.62180
H          1.71666       -0.19204        3.21892
H          0.11522        4.39950        0.39651
H          3.88174        3.92159        2.33254
H          4.91233       -3.82094        0.01237
H          6.10541        0.03857       -1.34011
H         -6.24283       -1.46377        0.77651
H         -3.33424       -4.50674        0.11690
H         -3.36787        4.58743        1.33612
H         -3.12961        3.26590       -2.70793
H          2.08017        5.38114        1.50978
H          6.56601       -2.36377       -1.07892
H         -5.68163       -3.82938        0.40060
H         -3.69023        5.01035       -1.06486
