111
-148.55257983
P         -1.65316        2.77847       -0.09186
P         -0.43994       -0.07191        0.54446
C         -1.66927        2.14543        1.61150
C         -1.20246        0.87460        1.87351
C         -0.48274        4.20382       -0.22506
C          0.65435        3.86928       -1.16743
C         -2.11295        2.93900        2.65020
H         -2.43749        3.94655        2.44884
C         -2.11424        2.44571        3.94361
H         -2.46492        3.06421        4.75363
C         -1.66082        1.16564        4.19903
H         -1.65676        0.78423        5.20684
C         -1.19276        0.38044        3.16071
H         -0.80188       -0.60806        3.34496
Pd        -1.23669        0.90614       -1.38431
Cl        -2.51639        1.73445       -3.02562
Cl        -0.62723       -0.95476       -2.49244
C         -1.37841        5.36574       -0.70189
C         -3.23356        3.61622       -0.57049
H          0.27151        3.62259       -2.15993
H          1.34429        4.70947       -1.27618
H          1.22490        3.00701       -0.81573
H         -1.23965        5.49422       -1.78406
H         -1.04864        6.31344       -0.25026
H         -3.38311        3.38901       -1.63380
C         -2.88343        5.10593       -0.40601
C         -4.42013        3.13644        0.23771
H         -0.11407        4.38892        0.79233
H         -3.11903        5.41684        0.62092
H         -3.52435        5.72312       -1.05423
H         -4.55515        2.05705        0.13749
H         -4.28915        3.35194        1.29834
H         -5.34334        3.62435       -0.08302
C         -0.99090       -4.58593        0.69260
C          0.25509       -4.02049        1.06645
C          0.39357       -2.64344        1.01132
C         -0.66333       -1.84045        0.67080
C         -1.89718       -2.37435        0.40821
C         -2.10534       -3.74360        0.44669
O         -1.11093       -5.99216        0.53186
C          1.45868       -4.87895        1.48640
H          1.34100       -2.17612        1.21652
H         -2.69676       -1.70108        0.14946
C         -3.51628       -4.28935        0.17681
C          3.85393        1.33003       -0.01847
C          3.34369        0.28154       -0.82631
C          2.03186       -0.11549       -0.63150
C          1.27462        0.41641        0.37750
C          1.79525        1.35705        1.22701
C          3.09461        1.81184        1.07854
O          5.10257        1.92943       -0.33293
C          4.16456       -0.39843       -1.93231
H          1.56201       -0.81771       -1.29805
H          1.16018        1.75274        1.99974
C          3.64515        2.84535        2.07342
C          2.38630       -4.09250        2.44047
C          1.00078       -6.13952        2.24218
C          2.26471       -5.27197        0.23911
C         -4.59000       -3.28528        0.65499
C         -3.69204       -4.51045       -1.33345
C         -3.76258       -5.60284        0.94106
C         -0.83470       -6.45171       -0.78545
H          3.16745       -4.73885        2.84006
H          2.88392       -3.26878        1.93054
H          1.82433       -3.68781        3.28182
H          1.85498       -6.71782        2.59347
H          0.39497       -5.86977        3.10658
H          0.40373       -6.78842        1.60619
H          3.13989       -5.86226        0.50944
H          1.66435       -5.85930       -0.45082
H          2.60644       -4.38502       -0.29303
H         -4.59461       -2.38019        0.04956
H         -5.58615       -3.72145        0.58390
H         -4.42149       -3.00323        1.69397
H         -3.54974       -3.57708       -1.87773
H         -2.96849       -5.22681       -1.71460
H         -4.68961       -4.88557       -1.56028
H         -3.59891       -5.46153        2.00886
H         -4.78428       -5.95373        0.79790
H         -3.09471       -6.39112        0.60363
H         -0.03039       -7.18653       -0.75418
H         -1.71933       -6.93563       -1.19875
H         -0.54322       -5.61797       -1.42559
C          5.01035        3.00799       -1.25569
C          5.66635       -0.40138       -1.59426
C          3.73910       -1.87649       -2.08737
C          3.91913        0.32776       -3.26354
C          5.15685        2.65100        2.28943
C          3.36341        4.26139        1.54861
C          2.96691        2.69119        3.45383
H          6.06492        0.60835       -1.54216
H          5.84124       -0.87876       -0.63065
H          6.23678       -0.94197       -2.34916
H          4.39551       -2.39755       -2.78386
H          3.78927       -2.39316       -1.12953
H          2.72537       -1.96860       -2.47387
H          4.48073       -0.13877       -4.07240
H          2.86200        0.30093       -3.52713
H          4.21814        1.37170       -3.20423
H          5.71371        2.82463        1.37188
H          5.53736        3.34170        3.04150
H          5.36948        1.63569        2.62246
H          2.29241        4.42313        1.43259
H          3.74476        5.01557        2.23649
H          3.82985        4.42402        0.58021
H          1.91508        2.97181        3.41979
H          3.44480        3.33343        4.19325
H          3.03738        1.66309        3.80804
H          5.57246        2.76926       -2.15826
H          3.96866        3.19800       -1.51712
H          5.44376        3.90449       -0.81254
