171
-217.84509601
P         -1.65294        0.37191       -0.36936
P          1.60900       -0.40960       -0.32285
C         -0.91577        1.29951       -1.71574
C          0.89972       -1.39835       -1.64097
C         -0.10173        0.66671       -2.64882
C          0.52509        1.44919       -3.63804
C          0.28267        2.81217       -3.67830
C         -0.55348        3.41403       -2.76193
C         -1.14384        2.65247       -1.77258
C          1.12199       -2.75396       -1.63031
C          0.53921       -3.56150       -2.58646
C         -0.27920       -3.00092       -3.54381
C         -0.51596       -1.63621       -3.57122
C          0.09850       -0.80916       -2.61210
Cl         1.48911        0.27368        2.87596
Cl        -1.69338       -0.55383        2.75350
C         -1.39290       -1.06292       -4.62765
C          1.44288        0.84402       -4.64222
H         -0.74213        4.47383       -2.81384
H         -1.78657        3.11475       -1.04047
H          1.75689       -3.18394       -0.87297
H          0.72139       -4.62374       -2.58079
H          0.76049        3.40414       -4.44070
H         -0.74428       -3.62715       -4.28638
C         -3.98689       -3.26367       -1.70704
C         -2.94111       -3.42441       -0.80673
C         -2.24108       -2.29047       -0.41535
C         -2.56737       -1.06088       -0.92984
C         -3.59423       -0.91979       -1.83127
C         -4.33811       -2.02416       -2.22987
H         -4.54783       -4.13290       -1.99395
H         -1.43752       -2.35497        0.29768
H         -3.82255        0.06047       -2.21543
C         -4.20142        2.95032        2.36149
C         -4.82312        1.96469        1.60630
C         -4.03040        1.19979        0.75936
C         -2.68010        1.43264        0.66685
C         -2.08442        2.41703        1.41831
C         -2.83508        3.18787        2.29693
H         -4.79736        3.53992        3.03359
H         -4.45746        0.40115        0.17992
H         -1.02102        2.56063        1.33471
C          4.45067       -2.80352        2.28493
C          3.10655       -3.15947        2.26008
C          2.25685       -2.43738        1.43264
C          2.73307       -1.39151        0.68248
C          4.05978       -1.04478        0.73112
C          4.94970       -1.74742        1.53097
H          5.12299       -3.35670        2.91178
H          1.20867       -2.68024        1.38659
H          4.40470       -0.20837        0.14885
C          3.88143        3.27264       -1.62563
C          2.88906        3.40447       -0.66152
C          2.17559        2.26759       -0.30598
C          2.45323        1.05985       -0.89522
C          3.43708        0.94382       -1.84612
C          4.17673        2.05650       -2.23000
H          4.45954        4.13351       -1.90363
H          1.41133        2.31710        0.45090
H          3.63393       -0.02734       -2.26785
Pd        -0.05603       -0.06041        1.28340
C         -1.35174       -4.78677        0.63487
C         -2.61759       -4.81477       -0.24334
C         -2.37984       -5.79971       -1.40344
C         -3.80052       -5.29717        0.61445
H         -1.48886       -4.14335        1.50363
H         -1.11196       -5.78509        1.00048
H         -0.49505       -4.42480        0.06758
H         -2.10420       -6.78494       -1.02773
H         -3.27230       -5.91712       -2.01659
H         -1.57549       -5.44764       -2.04807
H         -3.98847       -4.60372        1.43400
H         -4.71229       -5.36993        0.02247
H         -3.59846       -6.27922        1.04167
C         -5.02870       -1.29307       -4.53498
C         -5.52722       -1.84039       -3.18646
C         -6.52612       -0.84598       -2.56756
C         -6.26412       -3.16934       -3.44368
H         -4.35210       -2.00195       -5.01019
H         -5.86153       -1.11962       -5.21630
H         -4.49991       -0.34919       -4.40801
H         -6.87136       -1.20315       -1.59767
H         -6.07094        0.13344       -2.42652
H         -7.39781       -0.71735       -3.20898
H         -6.65050       -3.58958       -2.51526
H         -7.11002       -3.01843       -4.11430
H         -5.60361       -3.90148       -3.90789
C         -7.09782        3.02326        1.48368
C         -6.32981        1.71877        1.76811
C         -6.61063        1.25171        3.20773
C         -6.83554        0.63808        0.79428
H         -6.88241        3.38474        0.47831
H         -8.17356        2.86699        1.56266
H         -6.82464        3.80826        2.18761
H         -7.67176        1.05044        3.35350
H         -6.05902        0.33820        3.42917
H         -6.31036        2.00688        3.93327
H         -7.90839        0.48376        0.90879
H         -6.65195        0.93362       -0.23787
H         -6.34450       -0.31777        0.97598
C         -0.66420        4.25739        3.08072
C         -2.19929        4.24838        3.20688
C         -2.55584        3.94244        4.67412
C         -2.73480        5.63691        2.81647
H         -0.22303        4.98983        3.75652
H         -0.24489        3.28228        3.32868
H         -0.36005        4.52012        2.06937
H         -3.63087        3.98977        4.84216
H         -2.21695        2.94395        4.94987
H         -2.08336        4.65743        5.34740
H         -2.29460        6.41472        3.44022
H         -2.49693        5.86227        1.77693
H         -3.81710        5.68810        2.93064
C          1.31324       -3.81010        3.89418
C          2.53617       -4.31120        3.09956
C          3.57238       -4.85425        4.10236
C          2.11303       -5.45243        2.15885
H          0.91921       -4.59460        4.53981
H          1.58417       -2.96046        4.52047
H          0.50780       -3.49253        3.23373
H          4.43344       -5.28069        3.58833
H          3.92174       -4.06527        4.76818
H          3.13778       -5.64080        4.71917
H          1.68238       -6.28256        2.71847
H          1.37120       -5.11037        1.43913
H          2.96942       -5.82837        1.59937
C          7.01278       -1.45497        0.13863
C          6.42462       -1.32220        1.55575
C          7.25504       -2.19475        2.51601
C          6.52054        0.14385        2.01967
H          8.06363       -1.16643        0.12306
H          6.93898       -2.48347       -0.21409
H          6.48235       -0.82044       -0.57027
H          7.23237       -3.24168        2.21408
H          8.29753       -1.87668        2.52346
H          6.88024       -2.12006        3.53666
H          5.99723        0.81182        1.33637
H          6.07740        0.26378        3.00803
H          7.55923        0.46953        2.07248
C          2.70686        4.55521        1.55815
C          2.57673        4.73663        0.03356
C          1.14292        5.16439       -0.32374
C          3.54356        5.85323       -0.40499
H          2.49303        5.48647        2.08230
H          2.01881        3.79791        1.93032
H          3.71687        4.24285        1.82256
H          0.42377        4.39099       -0.05872
H          0.86424        6.08002        0.19751
H          1.05512        5.34602       -1.39434
H          3.31596        6.78562        0.11161
H          4.57584        5.59061       -0.17415
H          3.46533        6.04321       -1.47528
C          5.14907        2.98655       -4.35699
C          5.34335        1.96114       -3.22376
C          5.44460        0.55604       -3.84945
C          6.65711        2.25903       -2.47786
H          5.14236        4.00653       -3.97514
H          5.95318        2.91354       -5.08906
H          4.20641        2.81833       -4.87603
H          5.63970       -0.20009       -3.08936
H          4.52619        0.29070       -4.37195
H          6.26012        0.51231       -4.57122
H          6.65026        3.26253       -2.05363
H          6.80511        1.55295       -1.66100
H          7.51297        2.18453       -3.14846
H         -0.81162       -0.77380       -5.50387
H          0.97811        0.81490       -5.62867
H         -1.92121       -0.18004       -4.26500
H         -2.13879       -1.78951       -4.95009
H          1.72240       -0.17420       -4.36869
H          2.36108        1.42578       -4.72385
