87
-129.18302892
P         -1.51959       -0.26063       -0.41878
P          1.70786        0.29632        0.24868
C         -1.07957        0.97858       -1.64253
C          1.51686       -0.80765       -1.17460
C          0.01772        0.73806       -2.45912
C          0.37111        1.70138       -3.42495
C         -0.39973        2.84657       -3.54431
C         -1.49147        3.06085       -2.72810
C         -1.82915        2.12156       -1.77366
C          2.13589       -2.02503       -1.01150
C          2.03686       -2.99769       -1.98756
C          1.29843       -2.74805       -3.12323
C          0.64852       -1.53879       -3.30092
C          0.76485       -0.53874       -2.31610
Cl         0.97502       -0.29679        3.37916
Cl        -1.72067       -1.84232        2.37496
H         -2.07621        3.96021       -2.83089
H         -2.68197        2.27653       -1.13408
H          2.69430       -2.21556       -0.10690
H          2.52582       -3.94890       -1.85563
H         -0.12976        3.58096       -4.28409
H          1.20599       -3.50660       -3.88198
C         -2.45626       -4.17015       -2.53700
C         -1.63140       -4.18858       -1.42063
C         -1.37602       -2.99048       -0.76545
C         -1.90733       -1.81171       -1.23364
C         -2.71856       -1.80006       -2.34401
C         -2.99868       -2.98620       -2.99690
H         -2.67164       -5.09490       -3.04462
C         -1.05743       -5.46263       -0.90954
H         -0.75739       -2.98441        0.11568
H         -3.12017       -0.86339       -2.69790
H         -3.63471       -2.98477       -3.86686
C         -5.16819        1.12097        1.93975
C         -5.23245       -0.03040        1.18087
C         -4.12735       -0.44309        0.46130
C         -2.97015        0.29902        0.49919
C         -2.90407        1.44548        1.25636
C         -4.00159        1.87122        1.99431
H         -6.02763        1.44451        2.50183
H         -6.14057       -0.61004        1.15331
H         -4.16003       -1.34766       -0.12354
H         -1.99420        2.01916        1.27322
C         -3.92698        3.11586        2.80666
C          6.07694       -0.00736        1.50631
C          5.74022        0.18203        0.18055
C          4.41029        0.27230       -0.18747
C          3.42823        0.16811        0.77078
C          3.76496       -0.01951        2.08970
C          5.09418       -0.10351        2.48120
H          7.11135       -0.08418        1.79527
H          6.51221        0.25715       -0.56766
H          4.13229        0.41222       -1.22033
H          2.98477       -0.10841        2.82386
C          5.45144       -0.33545        3.90739
C          0.79240        4.71754       -0.28660
C          1.66087        4.09016       -1.15757
C          1.94793        2.74777       -0.99645
C          1.35468        2.04332        0.02404
C          0.51960        2.67479        0.91729
C          0.22070        4.02410        0.77092
H          0.55758        5.76028       -0.41646
H          2.10763        4.64278       -1.96774
H          2.62011        2.24178       -1.67018
H          0.13168        2.12548        1.75832
C         -0.70895        4.70759        1.70995
Pd        -0.13365       -0.55179        1.45348
C          1.55524        1.51910       -4.30892
C         -0.17192       -1.33436       -4.52750
H          1.24685        1.29900       -5.33171
H          2.16667        2.42240       -4.33050
H          2.18920        0.70136       -3.96407
H          0.46235       -1.12229       -5.38900
H         -0.75882       -2.22543       -4.75475
H         -0.87037       -0.50546       -4.40884
H         -0.06845       -5.30041       -0.47820
H         -1.69573       -5.89165       -0.13597
H         -0.95349       -6.19793       -1.70867
H         -4.74537        3.16972        3.52587
H         -2.99230        3.15886        3.36739
H         -3.98222        3.99938        2.16929
H          5.55568       -1.40191        4.11168
H          6.39435        0.15097        4.16120
H          4.68414        0.06074        4.57412
H         -1.70853        4.77962        1.27927
H         -0.78418        4.16662        2.65417
H         -0.36557        5.71835        1.93478
