75
-122.81278943
P          1.81690       -0.61321        0.08543
C          3.13134       -1.32152       -0.92334
C          4.41779       -1.30930       -0.43366
C          5.44211       -1.87209       -1.17337
C          5.16836       -2.45318       -2.39534
C          3.87387       -2.47928       -2.87452
C          2.85204       -1.91647       -2.13219
H          1.83710       -1.93793       -2.49449
H          3.65876       -2.93665       -3.82627
H          5.96549       -2.89057       -2.97410
H          6.45062       -1.85975       -0.79386
H          4.61292       -0.87528        0.53451
C          1.77771       -1.57778        1.60797
C          1.43005       -0.98805        2.80153
C          1.49318       -1.71362        3.97630
C          1.89859       -3.03299        3.94745
C          2.23730       -3.62650        2.74767
C          2.17893       -2.89423        1.57557
H          2.45760       -3.34049        0.63433
H          2.55090       -4.65715        2.72378
H          1.94371       -3.60229        4.86147
H          1.21728       -1.25188        4.91002
H          1.09178        0.03414        2.80548
C          2.17265        1.10497        0.50546
C          3.34220        1.75742        0.19274
C          3.50107        3.10405        0.48812
C          2.44267        3.78879        1.08380
C          1.25991        3.15216        1.38736
C          1.11895        1.78585        1.09725
O         -0.08067        1.10428        1.35799
C         -1.26245        1.79164        1.03751
C         -1.42451        3.15164        1.34582
C         -2.60320        3.78482        1.01794
C         -3.63505        3.10672        0.36980
C         -3.44599        1.77347        0.03241
C         -2.27899        1.12824        0.36746
P         -1.90710       -0.54721       -0.16096
C         -1.60706       -1.61929        1.24775
C         -1.22966       -2.92224        1.01634
C         -1.11406       -3.80096        2.07861
C         -1.38484       -3.36854        3.36182
C         -1.76515       -2.06034        3.58756
C         -1.87927       -1.18373        2.52435
H         -2.18347       -0.16172        2.68188
H         -1.97182       -1.72172        4.58942
H         -1.29195       -4.05183        4.19009
H         -0.81450       -4.82109        1.90343
H         -1.04399       -3.24932        0.00511
C         -3.35140       -1.23664       -0.99910
C         -3.54690       -1.10263       -2.35367
C         -4.66935       -1.64239       -2.95099
C         -5.60111       -2.31169       -2.18364
C         -5.41199       -2.43742       -0.82206
C         -4.28469       -1.89632       -0.23049
H         -4.12613       -1.98768        0.83228
H         -6.14000       -2.95617       -0.22026
H         -6.47851       -2.73269       -2.64694
H         -4.81942       -1.53483       -4.01274
H         -2.83072       -0.55254       -2.93769
Pd         0.05263       -0.02716       -1.40764
Cl        -1.38311        0.97653       -2.82450
Cl         1.74306        0.94032       -2.56153
H         -4.20625        1.24341       -0.51484
C         -4.88421        3.81528       -0.01559
H         -4.78440        4.26268       -1.00527
H         -5.11986        4.61084        0.69242
H         -5.73292        3.13049       -0.03974
H         -2.72004        4.82714        1.25696
S         -0.09512        4.01940        2.13575
H          2.54244        4.83751        1.30155
C          4.75330        3.81563        0.11811
H          4.12878        1.22797       -0.31415
H          4.93592        4.66266        0.78061
H          5.61613        3.15146        0.18321
H          4.69487        4.19281       -0.90362
