75
-122.81560527
P          1.88123       -0.58320        0.02502
C          3.22028       -1.29449       -0.94505
C          4.48523       -1.30742       -0.40228
C          5.53252       -1.87015       -1.10942
C          5.30265       -2.42514       -2.35247
C          4.02933       -2.42389       -2.88616
C          2.98466       -1.86081       -2.17661
H          1.98642       -1.85641       -2.58310
H          3.84873       -2.85939       -3.85519
H          6.11760       -2.86284       -2.90561
H          6.52452       -1.87749       -0.68857
H          4.64547       -0.88758        0.57863
C          1.75631       -1.55958        1.53125
C          1.49682       -0.96124        2.74279
C          1.49048       -1.71817        3.89937
C          1.73771       -3.07490        3.83396
C          1.98658       -3.67514        2.61566
C          1.99789       -2.91282        1.46130
H          2.20853       -3.36461        0.50482
H          2.17549       -4.73472        2.56336
H          1.72824       -3.66754        4.73410
H          1.28440       -1.25042        4.84801
H          1.28486        0.09402        2.77662
C          2.21945        1.13932        0.42241
C          3.37889        1.78831        0.06764
C          3.54457        3.13876        0.34067
C          2.50159        3.82910        0.95630
C          1.32887        3.19464        1.30126
C          1.17983        1.82432        1.03427
O         -0.01129        1.14480        1.33983
C         -1.20462        1.82769        1.05218
C         -1.35240        3.19451        1.33764
C         -2.53645        3.82810        1.03141
C         -3.59057        3.14265        0.42936
C         -3.42078        1.80006        0.12196
C         -2.24915        1.15307        0.43760
P         -1.90589       -0.54644       -0.03955
C         -1.71119       -1.59255        1.40637
C         -1.86420       -1.07239        2.67089
C         -1.79621       -1.90849        3.77002
C         -1.57682       -3.26031        3.59266
C         -1.42111       -3.77689        2.32145
C         -1.49148       -2.93836        1.22339
H         -1.38830       -3.32750        0.22250
H         -1.24562       -4.83109        2.18371
H         -1.51973       -3.91258        4.44872
H         -1.91127       -1.50435        4.76226
H         -2.03410       -0.01498        2.79186
C         -3.27013       -1.22716       -0.99632
C         -4.49234       -1.35841       -0.37670
C         -5.56264       -1.89317       -1.07116
C         -5.39830       -2.29937       -2.38044
C         -4.16788       -2.17519       -2.99447
C         -3.10039       -1.63983       -2.29770
H         -2.13706       -1.53307       -2.76878
H         -4.03907       -2.49190       -4.01643
H         -6.23118       -2.71541       -2.92350
H         -6.52129       -1.99417       -0.58946
H         -4.60094       -1.04819        0.65101
Pd         0.01881       -0.13013       -1.35093
Cl        -1.51938        0.97060       -2.61495
Cl         1.52549        0.78711       -2.77259
H         -4.20132        1.26572       -0.39058
C         -4.84574        3.85001        0.06157
H         -5.04089        4.68351        0.73753
H         -5.70337        3.17757        0.10782
H         -4.78244        4.24581       -0.95279
H         -2.63989        4.87616        1.25086
S         -0.00201        4.07408        2.07552
H          2.60537        4.88071        1.15779
C          4.78615        3.84637       -0.07053
H          4.15361        1.24988       -0.44874
H          4.98820        4.69825        0.58000
H          5.65009        3.18199       -0.02497
H          4.69897        4.21577       -1.09305
