171
-217.83422588
P         -1.69867        0.70083        0.18596
P          1.54585       -0.16274       -0.25983
C         -0.90335        1.92233       -0.88390
C          0.69899       -0.71758       -1.75324
C         -0.15041        1.60839       -2.00990
C          0.53115        2.64234       -2.67883
C          0.40055        3.94443       -2.22656
C         -0.36522        4.23998       -1.11934
C         -1.00358        3.22010       -0.44064
C          0.79432       -2.02316       -2.16933
C          0.15408       -2.43829       -3.31978
C         -0.59112       -1.53717       -4.05069
C         -0.72088       -0.22036       -3.63975
C         -0.04961        0.20234       -2.47630
Cl         1.99872        1.11111        2.75137
Cl        -1.03852        0.40179        3.43894
C         -1.55193        0.73257       -4.42686
C          1.40920        2.37190       -3.84999
H         -0.45413        5.25745       -0.77521
H         -1.57806        3.43117        0.44937
H          1.36259       -2.72750       -1.58869
H          0.23255       -3.46402       -3.64138
H          0.91791        4.73137       -2.74922
H         -1.08272       -1.85604       -4.95394
C         -2.76743       -3.48605       -1.19139
C         -3.39200       -2.39333       -1.78120
C         -3.00173       -1.12571       -1.37033
C         -2.03176       -0.96409       -0.41193
C         -1.43517       -2.05800        0.17145
C         -1.79205       -3.34523       -0.21038
H         -3.06667       -4.47303       -1.48637
H         -3.48504       -0.25496       -1.77799
H         -0.70687       -1.91191        0.94952
C         -5.73434        2.37510        1.37828
C         -4.90673        1.88523        2.38089
C         -3.66561        1.38726        2.00921
C         -3.27531        1.39303        0.69487
C         -4.10175        1.89026       -0.28302
C         -5.35870        2.38624        0.04084
H         -6.70097        2.75983        1.64717
H         -2.98280        0.99707        2.74101
H         -3.75271        1.89299       -1.30167
C          3.77924       -3.69216        1.57298
C          2.95700       -2.93444        2.39600
C          2.27933       -1.86590        1.82868
C          2.42820       -1.55165        0.49878
C          3.27491       -2.29567       -0.28816
C          3.94647       -3.39811        0.22635
H          4.31163       -4.52853        1.98513
H          1.64550       -1.26372        2.45194
H          3.40420       -2.01652       -1.31851
C          4.64392        2.92545       -1.45321
C          4.55952        1.73717       -2.17039
C          3.60158        0.81001       -1.77835
C          2.77087        1.06550       -0.71518
C          2.86890        2.24485       -0.02199
C          3.80839        3.20218       -0.37733
H          5.38577        3.64834       -1.73232
H          3.49923       -0.11975       -2.31060
H          2.22170        2.41249        0.82020
Pd         0.18357        0.54448        1.55257
C         -5.84656       -2.03264       -2.08322
C         -4.56236       -2.53933       -2.76549
C         -4.77072       -4.00564       -3.19019
C         -4.29296       -1.70540       -4.03052
H         -6.05469       -2.60561       -1.17986
H         -5.75230       -0.98507       -1.79861
H         -6.70541       -2.12380       -2.74789
H         -5.03663       -4.62959       -2.33723
H         -5.57810       -4.08613       -3.91799
H         -3.86890       -4.41097       -3.64895
H         -5.10930       -1.80750       -4.74538
H         -4.19176       -0.64704       -3.79515
H         -3.37726       -2.03531       -4.51860
C          0.34705       -4.54089        0.36670
C         -1.18311       -4.55214        0.52101
C         -1.71128       -5.88833       -0.03591
C         -1.55513       -4.46433        2.01250
H          0.77211       -3.61458        0.74611
H          0.80285       -5.36465        0.91576
H          0.62966       -4.64086       -0.68046
H         -1.47369       -5.99273       -1.09450
H         -1.25889       -6.73021        0.48817
H         -2.79124       -5.96690        0.08740
H         -1.17019       -3.54979        2.46147
H         -2.63752       -4.46578        2.13915
H         -1.14928       -5.30971        2.56764
C         -4.30931        1.32205        4.79003
C         -5.37726        1.90324        3.84220
C         -6.65775        1.05861        3.97414
C         -5.66529        3.35530        4.26561
H         -3.38494        1.89704        4.73982
H         -4.65532        1.34355        5.82324
H         -4.08391        0.28576        4.53939
H         -6.47541        0.03205        3.65675
H         -7.00569        1.03621        5.00674
H         -7.46265        1.46062        3.35994
H         -5.98239        3.40237        5.30726
H         -4.77313        3.97160        4.15603
H         -6.45368        3.79677        3.65716
C         -7.63073        2.11118       -0.98495
C         -6.32305        2.92365       -1.02571
C         -5.72461        2.80869       -2.44206
C         -6.62156        4.40627       -0.73904
H         -8.12484        2.20264       -0.01846
H         -8.32768        2.45526       -1.74895
H         -7.43251        1.05402       -1.16058
H         -6.42305        3.18606       -3.18883
H         -4.80559        3.38813       -2.52861
H         -5.50417        1.77089       -2.69186
H         -7.29228        4.82184       -1.49088
H         -7.09227        4.53381        0.23512
H         -5.70228        4.99169       -0.74560
C          3.61422       -4.43486        4.34476
C          2.78708       -3.21541        3.89571
C          1.30362       -3.49366        4.19799
C          3.25361       -1.98370        4.69467
H          3.48117       -4.62083        5.41045
H          3.30664       -5.33462        3.81210
H          4.67762       -4.27400        4.16859
H          0.67911       -2.63971        3.93827
H          0.95297       -4.35478        3.63033
H          1.15393       -3.70440        5.25663
H          2.65929       -1.10416        4.44974
H          3.16518       -2.15706        5.76687
H          4.29553       -1.75376        4.47342
C          4.79742       -3.86580       -2.12738
C          4.84849       -4.28412       -0.64452
C          4.37784       -5.74778       -0.54366
C          6.30058       -4.16697       -0.14917
H          5.41790       -4.52314       -2.73633
H          3.77994       -3.91882       -2.51467
H          5.16648       -2.85012       -2.26270
H          4.98160       -6.39579       -1.17877
H          4.45236       -6.12177        0.47658
H          3.33861       -5.83975       -0.85914
H          6.64330       -3.13380       -0.20446
H          6.39141       -4.49432        0.88600
H          6.97020       -4.77825       -0.75396
C          4.74905        0.90641       -4.54628
C          5.53080        1.38896       -3.30877
C          6.47010        0.26930       -2.82669
C          6.38120        2.60519       -3.72409
H          4.07183        1.68127       -4.90302
H          5.42906        0.65836       -5.36110
H          4.16025        0.01650       -4.32851
H          7.03635        0.59071       -1.95274
H          5.90593       -0.61978       -2.54866
H          7.17877       -0.01105       -3.60575
H          7.02881        2.35499       -4.56435
H          5.74803        3.43824       -4.02930
H          7.02134        2.93741       -2.90720
C          2.56167        5.22166        0.43865
C          3.91542        4.48891        0.45343
C          4.99058        5.44140       -0.10337
C          4.28677        4.12084        1.90216
H          1.77177        4.60397        0.86423
H          2.61041        6.14400        1.01703
H          2.27588        5.47798       -0.58094
H          5.04289        6.35407        0.49017
H          5.97650        4.97759       -0.08034
H          4.76578        5.72798       -1.13061
H          3.52748        3.48447        2.35526
H          5.23349        3.58202        1.93158
H          4.38576        5.01356        2.51924
H         -0.92980        1.34843       -5.07687
H          0.97181        2.76818       -4.76742
H         -2.11374        1.39715       -3.76836
H         -2.26953        0.20769       -5.05861
H          1.57708        1.30307       -3.98773
H          2.38296        2.84451       -3.71311
