59
-75.80341979
Cl         1.36171        0.64027        2.45942
P          1.47112        0.14872       -0.76730
P         -1.68108       -0.22690       -0.80163
C          0.52243        0.31088       -2.34182
H          0.21376        1.35452       -2.44244
H          1.19046        0.08452       -3.17867
C         -0.67446       -0.59455       -2.30428
H         -0.36120       -1.64007       -2.25631
H         -1.30994       -0.48342       -3.18836
C          2.50255       -1.39391       -0.74712
H          2.33136       -1.89133       -1.70934
C          2.81946        1.41499       -0.64719
H          2.87130        1.70395        0.40978
C         -2.99355       -1.50456       -0.49847
H         -3.04243       -1.62765        0.59050
C         -2.76124        1.26420       -1.06110
H         -2.62414        1.56018       -2.10813
C          3.95044       -0.87612       -0.64160
H          4.29182       -0.99480        0.39575
H          4.62625       -1.50122       -1.24433
C          4.07187        0.61623       -1.04624
H          4.20737        0.69209       -2.13414
H          4.97231        1.06946       -0.60393
C         -4.26662       -0.81162       -1.01145
H         -4.39493       -1.05073       -2.07640
H         -5.15516       -1.22225       -0.50751
C         -4.18650        0.72552       -0.83044
H         -4.49859        0.98438        0.19073
H         -4.90130        1.23657       -1.49300
C          2.11261       -2.31124        0.40686
H          1.02789       -2.46921        0.39762
H          2.31236       -1.79084        1.35331
C          2.57003        2.64342       -1.51552
H          2.49144        2.32702       -2.56370
H          1.59106        3.07215       -1.26855
C         -2.72930       -2.85360       -1.16048
H         -3.64444       -3.45965       -1.10657
H         -2.55368       -2.69650       -2.23240
C         -2.41813        2.42762       -0.13384
H         -3.23192        3.16511       -0.17459
H         -2.41340        2.06235        0.90154
C          2.83421       -3.65002        0.37605
H          2.53871       -4.29354        1.20785
H          3.91641       -3.51970        0.43120
H          2.62187       -4.19000       -0.54866
C          3.64971        3.70511       -1.36689
H          4.62851        3.32092       -1.65944
H          3.73204        4.03990       -0.33111
H          3.44700        4.58504       -1.98178
C         -1.57274       -3.61455       -0.53517
H         -1.42141       -4.59027       -1.00262
H         -1.73912       -3.78161        0.53073
H         -0.64056       -3.06069       -0.63118
C         -1.09877        3.10409       -0.46207
H         -0.26700        2.40711       -0.36921
H         -1.09212        3.48409       -1.48543
H         -0.89218        3.94528        0.20358
Cl        -1.82137       -0.14542        2.36617
Pd        -0.13260        0.04572        0.90103
