111
-148.55156373
P         -1.45751        2.64668        1.23591
P         -0.31057       -0.21093        0.54029
C         -0.95418        1.52558        2.57346
C         -0.51972        0.25300        2.26876
C         -0.28683        4.07568        1.14198
C          0.47664        4.05822       -0.16546
C         -0.96912        1.94794        3.88757
H         -1.26585        2.95773        4.11858
C         -0.57792        1.08259        4.89468
H         -0.59412        1.41112        5.92106
C         -0.16048       -0.19807        4.58636
H          0.14886       -0.86955        5.37033
C         -0.12076       -0.61104        3.26666
H          0.23574       -1.59469        3.00376
Pd        -1.66063        1.26897       -0.61148
Cl        -3.32176        2.54098       -1.40801
Cl        -1.61271       -0.18066       -2.33154
C         -1.20094        5.30368        1.32687
C         -3.03600        3.54870        1.59198
H          1.15091        4.91405       -0.24616
H          1.07351        3.14963       -0.26787
H         -0.21038        4.09414       -1.01344
H         -1.41985        5.73031        0.33846
H         -0.67144        6.09593        1.87722
H         -3.55385        3.63513        0.62816
C         -2.53674        4.93579        2.03392
C         -3.91481        2.82795        2.59183
H          0.39207        3.96707        1.99771
H         -2.39139        4.93266        3.12279
H         -3.30686        5.69861        1.84201
H         -4.15742        1.81957        2.24892
H         -3.41967        2.73398        3.55842
H         -4.85215        3.36414        2.75646
C         -0.84694       -4.66042       -0.26372
C         -1.93632       -3.89506        0.22591
C         -1.72961       -2.55044        0.49018
C         -0.52457       -1.95682        0.22050
C          0.49676       -2.66785       -0.35344
C          0.35565       -4.01370       -0.64652
O         -0.94909       -6.07506       -0.34022
C         -3.32239       -4.50648        0.48387
H         -2.51169       -1.94292        0.91266
H          1.41445       -2.15161       -0.57465
C          1.50159       -4.74628       -1.36218
C          3.67927        1.40130       -0.95560
C          3.36819        1.46362        0.42703
C          2.16626        0.92523        0.85423
C          1.26769        0.40767       -0.04116
C          1.51470        0.44991       -1.38768
C          2.69581        0.97272       -1.88311
O          4.98216        1.74222       -1.40663
C          4.31696        2.09268        1.45906
H          1.91160        0.90831        1.89912
H          0.74737        0.08933       -2.04999
C          2.89017        1.06923       -3.40422
C         -3.61966       -5.64348       -0.51087
C         -3.38614       -5.03396        1.92504
C         -4.42980       -3.44463        0.29614
C          2.27303       -3.77575       -2.28611
C          2.47656       -5.31081       -0.31827
C          0.96322       -5.87984       -2.25400
C         -0.52089       -6.75145        0.83495
H         -2.92898       -6.47329       -0.38282
H         -4.62887       -6.03088       -0.37359
H         -3.52878       -5.28842       -1.53686
H         -2.63682       -5.80307        2.09644
H         -3.20495       -4.22992        2.63799
H         -4.36430       -5.46297        2.14093
H         -5.41752       -3.90217        0.34729
H         -4.39142       -2.68051        1.07100
H         -4.33699       -2.95581       -0.67338
H          2.82496       -3.02883       -1.71734
H          2.99918       -4.31459       -2.89433
H          1.58962       -3.25921       -2.95964
H          1.97975       -6.01544        0.34445
H          3.30655       -5.82815       -0.79884
H          2.88796       -4.51081        0.29684
H          0.47387       -6.65068       -1.66391
H          0.23594       -5.49349       -2.96729
H          1.76863       -6.35481       -2.81363
H         -0.19988       -6.03436        1.59152
H         -1.33984       -7.35333        1.22852
H          0.30587       -7.41882        0.59239
C          5.88321        0.64343       -1.45634
C          5.10899        3.25942        0.84141
C          3.52240        2.67113        2.65220
C          5.27982        1.01820        1.98566
C          3.76775        2.27866       -3.77430
C          3.53009       -0.22854       -3.91933
C          1.53115        1.26546       -4.11504
H          4.43186        4.00433        0.42455
H          5.73328        3.74855        1.58873
H          5.76105        2.91653        0.04182
H          4.18032        3.22170        3.32417
H          2.74972        3.35674        2.30638
H          3.04831        1.88732        3.24108
H          5.87768        0.59682        1.18109
H          5.96014        1.43368        2.72863
H          4.72823        0.20189        2.45150
H          3.34203        3.19804       -3.37354
H          4.77386        2.17566       -3.37552
H          3.85127        2.38631       -4.85544
H          3.67865       -0.18929       -4.99811
H          4.49636       -0.40450       -3.45266
H          2.89406       -1.08485       -3.69774
H          1.67476        1.46605       -5.17640
H          0.98682        2.10647       -3.68618
H          0.90432        0.37820       -4.04022
H          6.74454        0.84901       -0.82097
H          5.39046       -0.26888       -1.11767
H          6.23844        0.50737       -2.47764
