64
-97.21778482
Cl        -1.55784       -1.02417       -2.64595
Cl         1.66401       -1.22374       -2.88741
P          1.93915       -0.64185        0.28524
C          2.11903       -2.31377        1.06196
C          3.73412       -0.23799        0.01285
P         -1.28569       -0.16244        0.43712
C          1.24920        0.59052        1.44804
C         -0.17843        0.83125        1.50437
C         -0.41144        1.95411        2.40029
C          0.87593        2.41546        2.88820
C          1.90354        1.58352        2.28664
H         -1.38646        2.34606        2.69599
H          1.04174        3.23754        3.58803
Pd         0.18220       -0.91781       -1.23955
H          2.98006        1.67137        2.44824
C         -5.08143        1.99334       -0.89769
C         -4.09639        2.70325       -0.24098
C         -2.94298        2.06158        0.16993
C         -2.77166        0.71863       -0.07989
C         -3.75714        0.00874       -0.72756
C         -4.91416        0.64480       -1.14068
H         -5.98102        2.49169       -1.22043
H         -4.22490        3.75597       -0.04923
H         -2.17126        2.60924        0.68084
H         -3.61392       -1.04331       -0.91540
H         -5.68102        0.08793       -1.65365
C         -2.55747       -4.00407        2.49734
C         -2.38454       -2.85095        3.23842
C         -2.00398       -1.67855        2.60999
C         -1.79708       -1.67270        1.25011
C         -1.97599       -2.81546        0.50539
C         -2.35615       -3.98858        1.13075
H         -2.85356       -4.91777        2.98642
H         -2.54441       -2.86352        4.30406
H         -1.85997       -0.76921        3.17189
H         -1.82828       -2.77825       -0.56228
H         -2.49642       -4.88676        0.55205
C          4.13553       -0.29631       -1.44471
H          3.89605        0.77120        0.41345
C          4.45437       -1.29682        0.87069
H          4.62549       -0.90546        1.88425
C          3.62775       -2.60711        0.95715
H          5.45319       -1.49418        0.45478
C          1.61026       -2.28804        2.48697
H          1.53265       -3.01591        0.45350
H          3.94681       -3.21164        1.81842
H          3.82946       -3.22482        0.06998
H          2.17276       -1.56562        3.08179
H          0.55939       -1.99699        2.52874
H          1.70918       -3.26443        2.96714
H          3.93286       -1.28620       -1.85644
H          3.58575        0.42748       -2.04782
H          5.20141       -0.09667       -1.57436
Fe         0.80675        2.45905        0.83014
C          1.33460        2.20875       -1.15713
C          2.20751        3.15653       -0.49203
C          1.39321        4.24824        0.01501
C          0.00744        3.94898       -0.30422
C         -0.02557        2.68926       -1.02696
H          1.63691        1.31401       -1.70372
H          3.29687        3.09416       -0.43911
H          1.75733        5.13461        0.53955
H         -0.85267        4.58505       -0.08197
H         -0.90777        2.21168       -1.45816
