105
-153.07073624
Cl        -0.04144        1.97119        3.00710
Pd        -0.59666        1.11602        0.98898
P         -1.25911        0.48804       -1.15778
N         -0.95901       -1.07525       -1.89879
C          0.07319       -1.97616       -1.61899
C          0.32010       -2.47472       -0.31196
C          1.34715       -3.42085       -0.11672
C          1.57018       -3.98035        1.26849
C          2.45317       -5.23691        1.31633
C          3.67469       -5.08322        0.40596
C          3.23973       -4.85210       -1.04880
C          2.11707       -3.85588       -1.19888
C          1.83445       -3.37777       -2.47189
C          0.83122       -2.46871       -2.68134
H          0.62841       -2.10678       -3.67417
H          2.42152       -3.73058       -3.30292
H          4.09314       -4.51581       -1.65157
H          4.27636       -4.23148        0.74709
H          2.76206       -5.45870        2.34765
H          2.01842       -3.19553        1.88840
C         -0.62092       -2.18943        0.79765
C         -0.14729       -1.60653        2.00695
C         -1.02621       -1.51423        3.09107
C         -2.32436       -1.94130        2.98634
C         -2.80834       -2.50478        1.81220
C         -4.24265       -2.97965        1.79478
C         -4.74691       -3.45637        0.42200
C         -3.65572       -4.22282       -0.33015
C         -2.42168       -3.33405       -0.53929
C         -1.95181       -2.64426        0.71769
H         -1.59688       -3.92721       -0.95360
H         -4.03375       -4.60288       -1.28984
H         -5.05559       -2.59149       -0.17789
H         -4.88239       -2.17219        2.17314
H         -2.98913       -1.84441        3.82807
H         -0.67792       -1.06231        4.00322
N          1.13261       -1.04395        2.12025
P          1.56549        0.16935        0.91669
C          2.65999       -0.39737       -0.37497
C          2.48498        0.08352       -1.64780
C          3.36739       -0.28390       -2.64689
C          4.44072       -1.11937       -2.36641
C          4.60959       -1.57874       -1.06653
C          3.72376       -1.21084       -0.06953
H          3.85489       -1.55203        0.94503
H          5.43740       -2.22882       -0.84056
C          5.36659       -1.55260       -3.44869
H          3.22319        0.07315       -3.65218
H          1.65518        0.73773       -1.85136
C          2.40854        1.58566        1.63013
C          3.17754        1.45255        2.76085
C          3.82898        2.55707        3.27925
C          3.71283        3.79847        2.66774
C          2.94845        3.90601        1.51370
C          2.29826        2.80089        0.99572
H          1.69889        2.88218        0.10189
H          2.86358        4.86091        1.02376
C          4.42927        4.98373        3.21475
H          4.43322        2.46091        4.16512
H          3.27284        0.48713        3.23041
H          1.32334       -0.60158        3.01002
H         -1.24272       -0.96712       -2.86408
C         -0.53780        1.82277       -2.11599
C         -0.56894        3.09755       -1.60129
C          0.02036        4.13662       -2.29617
C          0.63190        3.90729       -3.52121
C          0.64298        2.61584       -4.03124
C          0.05315        1.57826       -3.33306
H          0.07374        0.57429       -3.72309
H          1.12355        2.42645       -4.97591
C          1.29844        5.01844       -4.25501
H          0.00916        5.13343       -1.88950
H         -1.06611        3.27257       -0.66008
C         -3.04139        0.69240       -1.18252
C         -3.63003        1.47418       -2.14800
C         -5.00413        1.63163       -2.16204
C         -5.79584        1.01318       -1.20386
C         -5.18301        0.21911       -0.24461
C         -3.80960        0.05879       -0.23788
H         -3.32732       -0.54769        0.50994
H         -5.78808       -0.26662        0.50158
C         -7.27673        1.16699       -1.22710
H         -5.47019        2.24114       -2.91729
H         -3.01296        1.96182       -2.88552
Cl        -2.48997        2.33304        1.18499
H          2.92322       -5.80258       -1.49472
H          1.86691       -6.10581        0.99190
H          4.33337       -5.95976        0.48444
H          0.59456       -4.19183        1.72409
H         -3.37033       -5.11060        0.24805
H         -2.64378       -2.56988       -1.29286
H         -4.34248       -3.79355        2.52293
H         -5.65022       -4.07311        0.53059
H          5.01023       -2.47090       -3.91753
H          5.45093       -0.78956       -4.22374
H          6.36790       -1.74048       -3.05865
H          4.54720        4.90767        4.29656
H          5.42250        5.07421        2.77291
H          3.88241        5.90435        3.00630
H          1.27600        4.84854       -5.33237
H          0.80410        5.97120       -4.06024
H          2.34176        5.11202       -3.95047
H         -7.73713        0.39288       -1.84256
H         -7.69568        1.09238       -0.22262
H         -7.56525        2.13720       -1.63389
