111
-148.55370152
P         -2.12416        2.34022        1.40013
P          0.01949        0.18183        0.51960
C         -1.13773        1.49370        2.65771
C         -0.23274        0.52963        2.27218
C         -2.02056        4.17651        1.57899
C         -1.18231        4.77360        0.46953
C         -1.30583        1.78978        3.99496
H         -2.00920        2.55316        4.28603
C         -0.57365        1.10328        4.94826
H         -0.70433        1.33173        5.99341
C          0.31760        0.12056        4.56176
H          0.88179       -0.41971        5.30405
C          0.48697       -0.16875        3.21948
H          1.17233       -0.93948        2.90271
Pd        -1.58546        1.40191       -0.63808
Cl        -3.14451        2.74934       -1.52630
Cl        -1.04044        0.30029       -2.51617
C         -3.49794        4.61200        1.57212
C         -3.94851        2.09250        1.61436
H         -1.61304        4.54235       -0.50655
H         -1.12165        5.86114        0.55524
H         -0.16521        4.37381        0.48125
H         -3.77953        4.88371        0.54543
H         -3.63088        5.52828        2.16715
H         -4.33921        1.87021        0.61236
C         -4.43360        3.47802        2.07947
C         -4.26085        0.96003        2.56993
H         -1.56619        4.36702        2.56013
H         -4.46495        3.49230        3.17754
H         -5.47060        3.64933        1.75295
H         -3.81131        0.02243        2.23611
H         -3.86969        1.17136        3.56609
H         -5.33788        0.80461        2.66599
C         -1.04862       -4.15299       -0.35490
C         -2.06935       -3.21591       -0.04964
C         -1.69807       -1.91498        0.24790
C         -0.38916       -1.51999        0.16257
C          0.58695       -2.39236       -0.24132
C          0.28573       -3.70966       -0.54280
O         -1.35402       -5.53767       -0.43496
C         -3.56040       -3.58664       -0.03141
H         -2.43172       -1.18670        0.54810
H          1.59600       -2.02676       -0.31758
C          1.40387       -4.63574       -1.04621
C          4.27721        0.94404       -0.92502
C          3.99499        1.01931        0.46293
C          2.69400        0.79673        0.88219
C          1.68603        0.57470       -0.02026
C          1.93917        0.61313       -1.36613
C          3.21313        0.83902       -1.85597
O          5.62357        0.92896       -1.37688
C          5.08488        1.28723        1.51242
H          2.45434        0.77900        1.92957
H          1.11420        0.44911       -2.03612
C          3.41965        0.93209       -3.37570
C         -4.42457       -2.37347       -0.44696
C         -3.86477       -4.71526       -1.03326
C         -3.96098       -4.01543        1.38793
C          2.08292       -5.31191        0.15409
C          0.84888       -5.69996       -2.01023
C          2.46721       -3.83055       -1.82823
C         -1.26124       -6.22159        0.80824
H         -5.46775       -2.66425       -0.56805
H         -4.39879       -1.58292        0.30109
H         -4.07995       -1.95929       -1.39419
H         -4.93247       -4.93003       -1.06973
H         -3.54013       -4.43580       -2.03501
H         -3.35347       -5.63548       -0.76209
H         -3.38882       -4.88110        1.71371
H         -3.77853       -3.21044        2.09954
H         -5.01864       -4.27363        1.43395
H          1.37321       -5.90772        0.72330
H          2.88889       -5.96878       -0.17212
H          2.50591       -4.56679        0.82754
H          1.65035       -6.31419       -2.41989
H          0.14982       -6.36392       -1.50766
H          0.32392       -5.22854       -2.84039
H          2.00057       -3.24012       -2.61607
H          3.02443       -3.15708       -1.17861
H          3.19239       -4.49709       -2.29448
H         -0.95229       -5.53547        1.59786
H         -2.22890       -6.65443        1.06133
H         -0.53612       -7.03113        0.72618
C          6.17551       -0.37611       -1.49935
C          4.48997        1.99869        2.74902
C          5.69515       -0.04904        1.96181
C          6.18254        2.20825        0.94940
C          4.61363        1.84000       -3.72190
C          3.64116       -0.47723       -3.94517
C          2.17495        1.54920       -4.05451
H          3.93819        2.89104        2.45460
H          3.81776        1.34720        3.30548
H          5.27887        2.30456        3.43583
H          6.46320        0.10724        2.71886
H          4.92989       -0.69887        2.38585
H          6.14979       -0.57522        1.12582
H          6.92087        2.45054        1.71337
H          6.70838        1.73838        0.12189
H          5.75197        3.14055        0.58559
H          5.54711        1.43016       -3.34490
H          4.71714        1.95727       -4.80032
H          4.48268        2.82903       -3.28414
H          2.77759       -1.11125       -3.74676
H          3.79327       -0.44326       -5.02361
H          4.51068       -0.95226       -3.49681
H          2.36326        1.73685       -5.11124
H          1.90945        2.49744       -3.58802
H          1.31238        0.88728       -3.99704
H          6.46008       -0.55895       -2.53534
H          7.07018       -0.45299       -0.88162
H          5.45032       -1.12747       -1.18403
