111
-148.55364675
P         -1.58700        2.73041       -0.35307
P         -0.46592       -0.10739        0.48478
C         -1.72511        2.17602        1.37044
C         -1.29556        0.91316        1.71905
C         -0.38227        4.12905       -0.46890
C          0.83276        3.72285       -1.27523
C         -2.22195        3.02343        2.34021
H         -2.51483        4.02518        2.07197
C         -2.31470        2.59183        3.65213
H         -2.70747        3.25201        4.40813
C         -1.89734        1.32018        3.99513
H         -1.96366        0.98642        5.01757
C         -1.37488        0.48194        3.02679
H         -1.00993       -0.50009        3.28392
Pd        -1.10770        0.80372       -1.54143
Cl        -2.02997        1.76045       -3.34411
Cl        -0.49038       -1.13431       -2.50144
C         -1.21129        5.26584       -1.09987
C         -3.11665        3.56957       -0.97642
H          1.35915        2.88750       -0.80884
H          0.54138        3.40555       -2.27861
H          1.53777        4.55091       -1.37937
H         -0.99395        5.30273       -2.17613
H         -0.88992        6.24034       -0.70235
H         -3.21190        3.27255       -2.02873
C         -2.73912        5.05926       -0.89227
C         -4.36111        3.17343       -0.21057
H         -0.10481        4.37802        0.56391
H         -3.03518        5.44730        0.09188
H         -3.31808        5.64236       -1.62479
H         -4.51601        2.09253       -0.24136
H         -4.28977        3.46343        0.83779
H         -5.25121        3.65478       -0.62195
C         -1.11616       -4.59288        0.93149
C          0.16597       -4.10066        0.57857
C          0.32968       -2.73144        0.45394
C         -0.69712       -1.86561        0.72533
C         -1.90856       -2.33175        1.16589
C         -2.13537       -3.68915        1.32789
O         -1.39500       -5.98255        0.84291
C          1.35802       -5.02158        0.27606
H          1.26579       -2.32163        0.11923
H         -2.68452       -1.61493        1.37361
C         -3.48123       -4.16008        1.90114
C          3.82231        1.39446        0.14019
C          3.31463        0.49343       -0.83035
C          2.01341        0.04497       -0.68909
C          1.25533        0.39217        0.39753
C          1.77150        1.19101        1.38340
C          3.06456        1.68003        1.30480
O          5.06938        2.04049       -0.07307
C          4.12155        0.05128       -2.06057
H          1.54746       -0.54369       -1.45946
H          1.13515        1.45394        2.20991
C          3.59731        2.55504        2.44981
C          1.27248       -6.33372        1.07657
C          1.39071       -5.32043       -1.23067
C          2.68625       -4.34005        0.67636
C         -4.04332       -3.11623        2.89314
C         -4.48778       -4.34259        0.75539
C         -3.32217       -5.47786        2.68144
C         -1.89554       -6.38744       -0.42524
H          2.15341       -6.95293        0.90907
H          1.20029       -6.12783        2.14396
H          0.40184       -6.91815        0.79061
H          1.48418       -4.39833       -1.80404
H          2.23318       -5.96334       -1.48414
H          0.47829       -5.81741       -1.55248
H          2.65292       -4.00620        1.71306
H          3.52230       -5.03146        0.57355
H          2.90514       -3.47936        0.04737
H         -4.33618       -2.19648        2.38919
H         -4.92948       -3.50018        3.39801
H         -3.30463       -2.86934        3.65534
H         -5.45854       -4.65983        1.13544
H         -4.62647       -3.40839        0.21180
H         -4.14453       -5.09091        0.04500
H         -4.26274       -5.77543        3.14432
H         -3.00556       -6.28883        2.03029
H         -2.57597       -5.37038        3.46797
H         -1.21108       -7.10408       -0.87870
H         -2.86316       -6.87268       -0.29793
H         -2.00446       -5.52429       -1.08324
C          4.97527        3.27557       -0.77285
C          3.87451        1.04171       -3.20891
C          5.62454       -0.03221       -1.73922
C          3.68351       -1.35666       -2.52532
C          3.25403        4.02533        2.16435
C          2.94728        2.15210        3.79349
C          5.11763        2.38416        2.61963
H          4.18685        2.04723       -2.93798
H          4.42376        0.74795       -4.10295
H          2.81497        1.08119       -3.46125
H          5.80005       -0.70388       -0.89952
H          6.18803       -0.40400       -2.59463
H          6.03015        0.94139       -1.47669
H          4.33159       -1.71928       -3.32279
H          3.73597       -2.06915       -1.70330
H          2.66712       -1.35667       -2.91593
H          3.70324        4.36289        1.23361
H          2.17584        4.15891        2.07840
H          3.61144        4.67238        2.96495
H          1.88672        2.39831        3.81924
H          3.05654        1.08266        3.97167
H          3.41698        2.67930        4.62360
H          5.48373        2.95762        3.47087
H          5.65700        2.72320        1.73900
H          5.36978        1.33684        2.78243
H          5.56566        3.22427       -1.68751
H          3.93686        3.49425       -1.02286
H          5.37678        4.07847       -0.15488
