87
-129.18175524
P         -1.54560       -0.17055       -0.26937
P          1.72052        0.43799        0.18110
C         -1.19194        1.06368       -1.52380
C          1.53439       -0.64293       -1.26080
C         -0.13985        0.84422       -2.40355
C          0.12606        1.80718       -3.39786
C         -0.67938        2.93125       -3.47946
C         -1.72166        3.12690       -2.59764
C         -1.97576        2.18714       -1.61821
C          2.24689       -1.81763       -1.19278
C          2.10440       -2.78514       -2.16788
C          1.22325       -2.57894       -3.20594
C          0.48452       -1.41189       -3.29233
C          0.65315       -0.41074       -2.31609
Cl         1.17953        0.00506        3.33318
Cl        -1.44693       -1.74740        2.57748
H         -2.33562        4.00946       -2.67190
H         -2.79574        2.32445       -0.93316
H          2.91281       -1.98532       -0.36182
H          2.66699       -3.70233       -2.10722
H         -0.48007        3.66056       -4.24615
H          1.09228       -3.33696       -3.95955
C         -2.56974       -4.09801       -2.30569
C         -1.58978       -4.08165       -1.32251
C         -1.30859       -2.87860       -0.68697
C         -1.97116       -1.72846       -1.04675
C         -2.93336       -1.74956       -2.02879
C         -3.23865       -2.94215       -2.65828
H         -2.80465       -5.02750       -2.79571
C         -0.87346       -5.32528       -0.92985
H         -0.56137       -2.84431        0.08776
H         -3.43239       -0.83314       -2.30282
H         -3.99320       -2.96727       -3.42730
C         -4.94649        1.21295        2.42934
C         -3.81476        1.99233        2.29440
C         -2.78857        1.57885        1.46692
C         -2.90209        0.39347        0.77841
C         -4.02673       -0.38638        0.91465
C         -5.07180        0.01611        1.73754
H         -5.74306        1.52707        3.08213
H         -3.72752        2.91840        2.83867
H         -1.89749        2.17451        1.35589
H         -4.09085       -1.32374        0.38887
C         -6.27299       -0.84516        1.91047
C          5.83158       -0.15413        2.04405
C          5.59394        0.92561        1.21673
C          4.34205        1.10371        0.65802
C          3.33774        0.20481        0.93307
C          3.57404       -0.87369        1.75388
C          4.82767       -1.07226        2.31944
H          6.80298       -0.28994        2.48818
H          6.38175        1.63107        1.00903
H          4.14121        1.94373        0.01303
H          2.77383       -1.56018        1.97612
C          5.06541       -2.21765        3.23935
C          0.81938        4.86773       -0.28402
C          0.33496        4.17001        0.80473
C          0.62774        2.82719        0.94459
C          1.37763        2.18914       -0.01651
C          1.88359        2.88641       -1.08805
C          1.61302        4.24227       -1.23571
H          0.59186        5.91381       -0.39924
H         -0.26056        4.67279        1.54908
H          0.31188        2.28006        1.81840
H          2.48143        2.37136       -1.82116
C          2.13280        5.00320       -2.40429
Pd        -0.02386       -0.40128        1.48482
C          1.24677        1.63769       -4.36362
C         -0.48291       -1.25282       -4.41406
H          1.80241        2.56871       -4.48345
H          1.95103        0.87546       -4.02820
H          0.87288        1.34322       -5.34494
H          0.03596       -1.03102       -5.34734
H         -1.06007       -2.16699       -4.56018
H         -1.19198       -0.44727       -4.22094
H         -1.36178       -5.80055       -0.07804
H         -0.85005       -6.04372       -1.75046
H          0.15864       -5.10967       -0.64916
H         -6.12103       -1.56123        2.71925
H         -7.15507       -0.24908        2.14874
H         -6.48817       -1.40649        1.00005
H          4.74923       -1.96953        4.25348
H          4.50750       -3.09901        2.91969
H          6.12200       -2.48719        3.27145
H          2.53575        5.96823       -2.09359
H          2.93138        4.45768       -2.90900
H          1.34029        5.18755       -3.13070
