75
-122.81146289
P          1.76922       -0.64799        0.13142
C          3.05081       -1.40441       -0.88348
C          4.35153       -1.37966       -0.43388
C          5.35025       -1.97813       -1.18054
C          5.03664       -2.60788       -2.36834
C          3.72780       -2.64752       -2.80578
C          2.73165       -2.04875       -2.05668
H          1.70552       -2.08284       -2.38506
H          3.48153       -3.14373       -3.73012
H          5.81372       -3.07336       -2.95242
H          6.37002       -1.95550       -0.83293
H          4.57814       -0.90859        0.50977
C          1.74748       -1.56761        1.68163
C          1.39525       -0.94788        2.85850
C          1.46533       -1.63926        4.05330
C          1.88325       -2.95495        4.06157
C          2.22791       -3.57858        2.87891
C          2.16200       -2.88036        1.68660
H          2.44332       -3.35108        0.75822
H          2.55151       -4.60640        2.88394
H          1.93416       -3.49768        4.99131
H          1.18553       -1.15383        4.97375
H          1.04701        0.07054        2.83392
C          2.16245        1.07529        0.49763
C          3.33198        1.70906        0.14807
C          3.50730        3.06144        0.40636
C          2.46521        3.77204        1.00109
C          1.28143        3.15516        1.33925
C          1.12546        1.78300        1.08719
O         -0.07779        1.12154        1.37919
C         -1.25256        1.81102        1.03903
C         -1.40368        3.17832        1.31917
C         -2.57858        3.81206        0.97900
C         -3.61318        3.12797        0.34096
C         -3.43037        1.78863        0.02390
C         -2.26838        1.14217        0.37369
P         -1.87978       -0.53251       -0.14726
C         -1.60189       -1.60514        1.26553
C         -1.89482       -1.17024        2.53771
C         -1.79065       -2.04544        3.60313
C         -1.39961       -3.35160        3.38392
C         -1.10922       -3.78366        2.10489
C         -1.21465       -2.90631        1.04044
H         -1.01135       -3.23260        0.03236
H         -0.80135       -4.80218        1.93486
H         -1.31411       -4.03366        4.21399
H         -2.01310       -1.70739        4.60179
H         -2.20626       -0.14962        2.69011
C         -3.29711       -1.22824       -1.02535
C         -4.22667       -1.93284       -0.29291
C         -5.33159       -2.48087       -0.91923
C         -5.50244       -2.31707       -2.27918
C         -4.57483       -1.60286       -3.01021
C         -3.47477       -1.05633       -2.37820
H         -2.76364       -0.47088       -2.93329
H         -4.71111       -1.46500       -4.07032
H         -6.36248       -2.74328       -2.76949
H         -6.05651       -3.03487       -0.34578
H         -4.08297       -2.05375        0.76895
Pd         0.07318       -0.00641       -1.41169
Cl        -1.38918        1.12963       -2.70140
Cl         1.73374        0.85866       -2.67092
H         -4.18945        1.25602       -0.52246
C         -4.85674        3.83682       -0.06142
H         -5.07822        4.66045        0.61850
H         -5.71334        3.16152       -0.05461
H         -4.75888        4.24659       -1.06746
H         -2.68880        4.85965        1.19703
S         -0.06018        4.04965        2.08255
H          2.57798        4.82513        1.18913
C          4.76005        3.75070       -0.00214
H          4.10489        1.16056       -0.35934
H          4.69278        4.09201       -1.03587
H          4.95595        4.61916        0.62802
H          5.61898        3.08298        0.07686
