111
-148.55570405
P         -2.55271        2.05445       -0.53971
P         -0.00805        0.41390        0.39239
C         -1.92108        2.25931        1.14334
C         -0.80091        1.56057        1.53600
C         -2.87549        3.69192       -1.33789
C         -1.82081        4.01307       -2.37484
C         -2.55262        3.10706        2.03018
H         -3.42824        3.65079        1.71439
C         -2.05977        3.24748        3.31617
H         -2.55266        3.90740        4.01127
C         -0.93815        2.54253        3.70959
H         -0.55566        2.65034        4.71121
C         -0.30679        1.69530        2.81636
H          0.56608        1.13299        3.10871
Pd        -1.07896        0.67005       -1.64847
Cl        -2.39895        0.85515       -3.45095
Cl         0.53741       -0.59458       -2.55852
C         -4.30052        3.52929       -1.89835
C         -4.24566        1.31106       -0.62206
H         -2.00919        4.97844       -2.85039
H         -0.82274        4.04197       -1.93067
H         -1.80734        3.25600       -3.16068
H         -4.23171        3.19803       -2.94368
H         -4.81435        4.50209       -1.92960
H         -4.19826        0.54405       -1.40674
C         -5.12175        2.49134       -1.08149
C         -4.65189        0.69922        0.70090
H         -2.86397        4.43479       -0.52963
H         -5.55147        2.97913       -0.19579
H         -5.98172        2.12579       -1.66300
H         -5.65101        0.26038        0.64884
H         -3.95273       -0.08293        1.00248
H         -4.66198        1.45132        1.49149
C         -1.16304       -3.88963        1.33380
C         -0.04181       -3.62927        0.50482
C          0.27713       -2.30971        0.23025
C         -0.41226       -1.27886        0.81147
C         -1.43275       -1.52489        1.69263
C         -1.81200       -2.82041        2.00292
O         -1.66286       -5.21231        1.47067
C          0.80518       -4.74231       -0.13193
H          1.05533       -2.06552       -0.47170
H         -1.93438       -0.68276        2.13570
C         -2.92841       -3.05542        3.03293
C          4.45923        1.25285        0.08136
C          3.56303        1.79094       -0.87985
C          2.20989        1.53956       -0.72527
C          1.75134        0.71046        0.26473
C          2.62449        0.08460        1.11638
C          3.98988        0.30560        1.02973
O          5.79716        1.72056        0.14219
C          4.00532        2.60321       -2.10897
H          1.49363        1.99022       -1.39176
H          2.22455       -0.58195        1.86162
C          4.91285       -0.49888        1.96090
C          0.25115       -5.06191       -1.52872
C          2.27539       -4.28847       -0.27571
C          0.81863       -6.00937        0.74258
C         -2.64255       -4.31815        3.86582
C         -3.02468       -1.87073        4.02104
C         -4.27703       -3.19514        2.31054
C         -2.60603       -5.58274        0.47253
H         -0.78365       -5.39205       -1.47718
H          0.28398       -4.17862       -2.16624
H          0.83314       -5.84746       -2.00985
H          2.66717       -3.95215        0.68318
H          2.90188       -5.10960       -0.62323
H          2.38278       -3.47817       -0.99495
H          1.17280       -5.77792        1.74659
H         -0.17333       -6.44352        0.83266
H          1.47352       -6.77054        0.31920
H         -2.63408       -5.20923        3.24244
H         -1.67229       -4.24345        4.35573
H         -3.40129       -4.46044        4.63492
H         -2.05508       -1.66095        4.47197
H         -3.37950       -0.96532        3.53053
H         -3.72573       -2.09400        4.82496
H         -4.27859       -4.04927        1.63878
H         -5.08941       -3.32997        3.02423
H         -4.49294       -2.30713        1.71802
H         -2.19472       -6.37695       -0.14974
H         -3.50950       -5.96126        0.95058
H         -2.85496       -4.72440       -0.15280
C          5.94065        2.86702        0.96387
C          5.51774        2.49400       -2.36876
C          3.29079        2.05508       -3.36497
C          3.62184        4.07924       -1.91485
C          4.49670       -1.98557        1.93764
C          6.38631       -0.44107        1.52101
C          4.78450        0.03974        3.39514
H          6.08982        2.95101       -1.56477
H          5.82021        1.44995       -2.44209
H          5.79443        2.99468       -3.29629
H          3.64667        2.55562       -4.26501
H          3.47680        0.98738       -3.47724
H          2.21340        2.20325       -3.31630
H          3.90187        4.67170       -2.78550
H          2.54759        4.18674       -1.76759
H          4.12055        4.50412       -1.04577
H          3.49486       -2.13280        2.33736
H          4.51633       -2.37054        0.91860
H          5.17713       -2.58928        2.53767
H          7.00538       -1.09650        2.13317
H          6.48906       -0.74908        0.48107
H          6.78549        0.56639        1.61131
H          5.41364       -0.52626        4.08163
H          3.75570       -0.03052        3.74702
H          5.08356        1.08487        3.45001
H          5.64031        2.63479        1.98445
H          6.98343        3.18499        0.95848
H          5.31538        3.67596        0.58948
