171
-217.84555665
P         -1.58782        0.35877       -0.31846
P          1.63735       -0.46597       -0.34273
C         -0.87027        1.27648       -1.68065
C          0.87738       -1.44420       -1.64560
C         -0.12179        0.61959       -2.64986
C          0.46380        1.37844       -3.68059
C          0.25908        2.74835       -3.71316
C         -0.50127        3.37731       -2.74976
C         -1.06162        2.63518       -1.72854
C          1.06621       -2.80467       -1.61206
C          0.43344       -3.61854       -2.53061
C         -0.40601       -3.05979       -3.47050
C         -0.61240       -1.69132       -3.52151
C          0.05567       -0.85807       -2.60296
Cl         1.64599        0.25742        2.83822
Cl        -1.51555       -0.51388        2.88579
C         -1.55547       -1.14040       -4.53365
C          1.26692        0.72218       -4.74817
H         -0.66075        4.44214       -2.79533
H         -1.65485        3.11522       -0.96668
H          1.70847       -3.23460       -0.86055
H          0.58701       -4.68499       -2.50431
H          0.70132        3.32440       -4.50839
H         -0.91971       -3.69071       -4.17628
C         -4.06720       -3.16475       -1.67909
C         -4.33026       -1.91343       -2.22258
C         -3.53584       -0.85019       -1.81015
C         -2.54096       -1.04503       -0.88374
C         -2.29139       -2.28807       -0.35915
C         -3.04531       -3.38255       -0.76327
H         -4.69022       -3.99295       -1.96173
H         -3.69094        0.14197       -2.19930
H         -1.50930       -2.39215        0.37276
C         -4.22865        3.03252        2.23399
C         -4.82194        2.09030        1.40271
C         -3.98849        1.28981        0.63503
C         -2.62501        1.43809        0.68671
C         -2.05588        2.37589        1.51316
C         -2.84955        3.17969        2.32217
H         -4.85103        3.66969        2.83331
H         -4.41096        0.53450       -0.00334
H         -0.98389        2.46209        1.53825
C          4.51283       -2.85815        2.22772
C          3.16304       -3.18632        2.25402
C          2.30147       -2.46509        1.43677
C          2.77987       -1.45903        0.63359
C          4.11730       -1.15011        0.62110
C          5.01433       -1.84262        1.42275
H          5.18265       -3.40141        2.86724
H          1.24351       -2.66326        1.44298
H          4.46313       -0.34761       -0.00633
C          3.79421        3.33665       -1.51581
C          2.80700        3.38856       -0.53921
C          2.13724        2.21230       -0.23146
C          2.44127        1.04261       -0.88236
C          3.41866        1.00750       -1.84718
C          4.12786        2.15773       -2.17385
H          4.32786        4.23510       -1.75812
H          1.38711        2.20268        0.54073
H          3.64574        0.07066       -2.32797
Pd         0.02392       -0.10135        1.30860
C         -5.49800       -0.32700       -3.83363
C         -5.52027       -1.72013       -3.17361
C         -6.82326       -1.86302       -2.36706
C         -5.48516       -2.78239       -4.28980
H         -4.56830       -0.16594       -4.37855
H         -6.32014       -0.22139       -4.54135
H         -5.60392        0.46378       -3.09174
H         -7.69585       -1.72548       -3.00535
H         -6.89344       -2.84897       -1.90845
H         -6.86673       -1.12082       -1.57017
H         -6.30134       -2.62979       -4.99583
H         -4.54912       -2.73299       -4.84465
H         -5.58417       -3.78966       -3.88791
C         -4.01581       -5.20711        0.64903
C         -2.80394       -4.79003       -0.20238
C         -1.54141       -4.83562        0.67929
C         -2.61688       -5.78330       -1.36491
H         -4.16759       -4.50676        1.47019
H         -4.92770       -5.22602        0.05307
H         -3.87163       -6.20042        1.07366
H         -1.64780       -4.19081        1.55135
H         -1.35689       -5.84757        1.03953
H         -0.66361       -4.51705        0.11760
H         -2.40222       -6.78437       -0.99133
H         -3.51059       -5.84571       -1.98428
H         -1.78868       -5.47687       -2.00284
C         -6.68662        0.44607        1.72041
C         -6.34142        1.89086        1.31217
C         -6.79996        2.14190       -0.13639
C         -7.10050        2.85698        2.24142
H         -7.76262        0.27667        1.68491
H         -6.21386       -0.27751        1.05726
H         -6.34492        0.24140        2.73477
H         -7.87861        2.01862       -0.23171
H         -6.54586        3.15395       -0.45085
H         -6.32330        1.44806       -0.82750
H         -8.17653        2.70076        2.16555
H         -6.81761        2.70279        3.28256
H         -6.89879        3.89497        1.97751
C         -2.53602        5.62299        2.76292
C         -2.24489        4.20761        3.28958
C         -0.71986        4.02898        3.42324
C         -2.86552        4.03202        4.68936
H         -2.11501        6.38043        3.42386
H         -2.10430        5.76108        1.77165
H         -3.60859        5.79992        2.68787
H         -0.47055        3.01666        3.74138
H         -0.21935        4.22741        2.47786
H         -0.31054        4.72033        4.15962
H         -2.71450        3.01479        5.05022
H         -2.40916        4.71500        5.40567
H         -3.93612        4.23110        4.68211
C          2.91080       -3.81527        4.66268
C          2.65819       -4.27202        3.21462
C          3.40659       -5.59014        2.94289
C          1.14902       -4.52678        3.03913
H          2.54568       -4.55452        5.37533
H          3.97355       -3.66568        4.84972
H          2.40084       -2.87264        4.86100
H          3.26204       -5.90827        1.91053
H          4.47695       -5.48341        3.11402
H          3.04436       -6.38504        3.59465
H          0.80671       -5.31138        3.71368
H          0.56981       -3.62985        3.25803
H          0.92737       -4.84525        2.02132
C          7.07335       -1.78180        0.00164
C          6.50123       -1.46145        1.39356
C          7.31075       -2.23810        2.44979
C          6.64870        0.04548        1.68198
H          6.54088       -1.23580       -0.77536
H          8.12755       -1.51231       -0.06021
H          6.98192       -2.84555       -0.21706
H          6.92782       -2.04916        3.45254
H          7.27607       -3.31100        2.26188
H          8.35793       -1.93619        2.43292
H          6.15429        0.64850        0.92152
H          6.20734        0.29669        2.64621
H          7.69847        0.33736        1.70429
C          0.99850        5.04530       -0.02519
C          2.46753        4.66929        0.23615
C          3.35617        5.85273       -0.19218
C          2.68522        4.41814        1.74072
H          0.32823        4.23092        0.24405
H          0.70992        5.92468        0.55030
H          0.84354        5.26801       -1.08012
H          3.22198        6.08218       -1.24912
H          3.10375        6.74934        0.37388
H          4.40962        5.63650       -0.01532
H          2.44752        5.30736        2.32421
H          2.06071        3.60320        2.10358
H          3.72312        4.15144        1.93877
C          4.72424        1.68307       -4.56730
C          5.27843        2.08289       -3.19021
C          6.30105        1.03078       -2.72165
C          6.00578        3.43440       -3.33160
H          4.23576        0.71044       -4.52681
H          3.99800        2.41709       -4.91499
H          5.52259        1.62393       -5.30692
H          5.85440        0.03838       -2.68021
H          7.15155        0.98277       -3.40146
H          6.67651        1.27442       -1.72796
H          6.42269        3.75695       -2.37764
H          6.82901        3.35751       -4.04183
H          5.33025        4.20838       -3.69544
H         -1.75431       -0.08134       -4.36516
H          1.85720       -0.10184       -4.34466
H         -2.51065       -1.66400       -4.49075
H         -1.15764       -1.25543       -5.54289
H          1.95220        1.42886       -5.21633
H          0.62248        0.32305       -5.53191
