171
-217.84747247
P         -1.58410        0.37088       -0.32217
P          1.59817       -0.46014       -0.27122
C         -0.83811        1.30942       -1.65937
C          0.88616       -1.41194       -1.62187
C         -0.05800        0.67848       -2.62129
C          0.56465        1.46415       -3.61038
C          0.35705        2.83359       -3.61680
C         -0.43825        3.43705       -2.66572
C         -1.02883        2.66923       -1.68118
C          1.06695       -2.77383       -1.61379
C          0.47526       -3.56153       -2.58107
C         -0.31225       -2.97550       -3.54887
C         -0.50821       -1.60483       -3.57645
C          0.11548       -0.79926       -2.60411
Cl         1.54217        0.08616        2.93731
Cl        -1.67134       -0.54213        2.83139
C         -1.37351       -1.01447       -4.63443
C          1.42439        0.84844       -4.65835
H         -0.59800        4.50254       -2.69002
H         -1.64329        3.13172       -0.92543
H          1.67540       -3.22596       -0.84795
H          0.62480       -4.62883       -2.57479
H          0.82857        3.42939       -4.38009
H         -0.78920       -3.58593       -4.29713
C         -3.88831       -3.27316       -1.68479
C         -2.90911       -3.42128       -0.71095
C         -2.21630       -2.28597       -0.31172
C         -2.47871       -1.07092       -0.89313
C         -3.43284       -0.94461       -1.87293
C         -4.16744       -2.05107       -2.28420
H         -4.46553       -4.13303       -1.97039
H         -1.47250       -2.33764        0.46395
H         -3.60190        0.02627       -2.30664
C         -4.31578        3.06791        2.09885
C         -4.88360        2.14473        1.23012
C         -4.02799        1.32491        0.50596
C         -2.66693        1.44229        0.64044
C         -2.12399        2.36262        1.50328
C         -2.94202        3.18092        2.27150
H         -4.96469        3.71795        2.65583
H         -4.41880        0.58336       -0.16684
H         -1.05324        2.42904        1.58367
C          4.53900       -2.90824        2.16981
C          5.00764       -1.83512        1.42031
C          4.08650       -1.11574        0.67243
C          2.75897       -1.46257        0.66911
C          2.31265       -2.52453        1.41500
C          3.19490       -3.26482        2.19078
H          5.23575       -3.47414        2.75740
H          4.40744       -0.26478        0.09757
H          1.26271       -2.76405        1.40867
C          3.74036        3.36198       -1.39031
C          2.77157        3.40165       -0.39478
C          2.10365        2.22243       -0.09517
C          2.39554        1.06363       -0.77037
C          3.35615        1.03898       -1.75126
C          4.05442        2.19572       -2.07824
H          4.28483        4.25635       -1.62770
H          1.36488        2.20166        0.68749
H          3.56731        0.10433       -2.24246
Pd        -0.03787       -0.11485        1.35541
C         -1.41461       -4.76450        0.84328
C         -2.65020       -4.79460       -0.07744
C         -2.40043       -5.83642       -1.18439
C         -3.87792       -5.20327        0.75455
H         -0.53261       -4.43729        0.29374
H         -1.56667       -4.09132        1.68659
H         -1.20789       -5.75504        1.24813
H         -3.27319       -5.95606       -1.82482
H         -1.56274       -5.53626       -1.81274
H         -2.16828       -6.81145       -0.75632
H         -3.72356       -6.17217        1.22908
H         -4.07286       -4.47017        1.53711
H         -4.76923       -5.27217        0.13165
C         -5.35300       -0.54997       -3.96337
C         -5.30744       -1.94413       -3.30756
C         -6.64540       -2.19153       -2.58765
C         -5.11881       -2.99716       -4.41675
H         -4.41240       -0.31951       -4.46246
H         -6.14522       -0.49984       -4.71022
H         -5.55068        0.22659       -3.22501
H         -6.79675       -1.46068       -1.79387
H         -7.48265       -2.11542       -3.28119
H         -6.67160       -3.18328       -2.13719
H         -4.15830       -2.87131       -4.91422
H         -5.15792       -4.00959       -4.01730
H         -5.90084       -2.91070       -5.17096
C         -7.01841        1.71811        2.47411
C         -6.41034        2.05069        1.09917
C         -6.82794        0.95057        0.10320
C         -6.96142        3.39780        0.59752
H         -6.61710        0.77885        2.85422
H         -6.79732        2.49582        3.20411
H         -8.10196        1.62094        2.40853
H         -7.91334        0.89130        0.02394
H         -6.43577        1.15444       -0.89290
H         -6.46690       -0.02622        0.42476
H         -8.04389        3.35621        0.47767
H         -6.73394        4.20322        1.29486
H         -6.52452        3.65675       -0.36681
C         -3.13300        4.13230        4.59746
C         -2.36266        4.19953        3.26378
C         -2.48756        5.60857        2.66120
C         -0.87792        3.90984        3.56305
H         -3.11288        3.12021        5.00125
H         -2.68876        4.79863        5.33672
H         -4.17423        4.42713        4.47634
H         -2.07934        6.36054        3.33624
H         -1.94794        5.67281        1.71644
H         -3.53040        5.85865        2.46760
H         -0.49666        4.58544        4.32851
H         -0.74394        2.88902        3.92095
H         -0.26334        4.04676        2.67575
C          7.35349       -2.31241        2.28856
C          6.48093       -1.40384        1.40194
C          6.58965        0.04156        1.92378
C          7.01164       -1.47230       -0.04235
H          7.31655       -3.34659        1.94665
H          8.39534       -1.99329        2.26168
H          7.02544       -2.27872        3.32730
H          6.03174        0.73371        1.29393
H          6.19087        0.11587        2.93524
H          7.62778        0.37259        1.94382
H          8.06161       -1.18352       -0.08671
H          6.92200       -2.48378       -0.43800
H          6.45537       -0.80584       -0.70032
C          2.19331       -5.55448        2.07920
C          2.65876       -4.43549        3.02683
C          1.47218       -3.95204        3.88480
C          3.73611       -5.00287        3.97113
H          1.41934       -5.19689        1.40213
H          3.02351       -5.91610        1.47279
H          1.78864       -6.39814        2.63797
H          1.10410       -4.75139        4.52754
H          1.77178       -3.11823        4.51926
H          0.64018       -3.61739        3.26710
H          3.32691       -5.80319        4.58762
H          4.57336       -5.41797        3.41058
H          4.11540       -4.23011        4.63958
C          3.33270        5.85798       -0.02075
C          2.44560        4.67188        0.40300
C          2.68029        4.39980        1.90131
C          0.97430        5.05557        0.16592
H          3.18583        6.10171       -1.07280
H          3.09072        6.74782        0.56034
H          4.38755        5.63569        0.13949
H          3.71893        4.12460        2.08320
H          2.45474        5.28273        2.49904
H          2.05480        3.58434        2.26135
H          0.80604        5.29399       -0.88348
H          0.30500        4.23941        0.43232
H          0.69614        5.92728        0.75791
C          5.34111        0.83460       -3.80361
C          5.19480        2.20137       -3.10620
C          6.51623        2.52106       -2.38292
C          4.91971        3.27150       -4.17936
H          5.58453        0.05120       -3.08631
H          4.42384        0.55545       -4.32026
H          6.14138        0.86181       -4.54304
H          6.71957        1.78200       -1.60807
H          7.35377        2.51897       -3.08026
H          6.47898        3.50071       -1.90770
H          5.70029        3.26953       -4.93997
H          3.96692        3.08826       -4.67430
H          4.88322        4.27000       -3.74577
H         -0.85609       -0.99244       -5.59446
H          2.27725        1.48759       -4.88744
H         -1.67155        0.00488       -4.38570
H         -2.28349       -1.60095       -4.76015
H          0.86499        0.69835       -5.58258
H          1.81309       -0.11869       -4.33645
