111
-148.55366564
P         -1.69614        2.76284       -0.05193
P         -0.41306       -0.07776        0.56321
C         -1.65878        2.12642        1.64954
C         -1.16737        0.86262        1.90197
C         -0.59568        4.23878       -0.21747
C          0.54109        3.94408       -1.17363
C         -2.09560        2.91290        2.69635
H         -2.44297        3.91402        2.50032
C         -2.06370        2.42034        3.98965
H         -2.40889        3.03328        4.80622
C         -1.58495        1.14780        4.23618
H         -1.55521        0.76683        5.24371
C         -1.12490        0.36963        3.18892
H         -0.71490       -0.61251        3.36578
Pd        -1.19822        0.92173       -1.35443
Cl        -2.37877        1.82447       -3.03337
Cl        -0.59122       -0.90877       -2.51063
C         -1.55183        5.35058       -0.69622
C         -3.32353        3.52048       -0.50506
H          0.15444        3.66974       -2.15737
H          1.19123        4.81269       -1.30266
H          1.15427        3.11130       -0.82196
H         -1.43763        5.46751       -1.78258
H         -1.25836        6.31961       -0.26523
H         -3.48901        3.26860       -1.56045
C         -3.03810        5.02690       -0.36978
C         -4.46600        3.00083        0.34141
H         -0.22116        4.45433        0.79178
H         -3.26964        5.34298        0.65655
H         -3.71757        5.60414       -1.01551
H         -4.55349        1.91474        0.26250
H         -4.31781        3.24072        1.39460
H         -5.41863        3.44042        0.03727
C         -1.03171       -4.58509        0.64568
C          0.22216       -4.04534        1.03084
C          0.38313       -2.67001        0.99751
C         -0.65887       -1.84500        0.66379
C         -1.90005       -2.35520        0.38846
C         -2.13118       -3.72120        0.40751
O         -1.17403       -5.98729        0.46835
C          1.40966       -4.93096        1.44010
H          1.33648       -2.22125        1.21582
H         -2.68769       -1.66538        0.13657
C         -3.55090       -4.23872        0.12779
C          3.87590        1.32918       -0.02280
C          3.39543        0.21762       -0.76175
C          2.08487       -0.18312       -0.56410
C          1.30196        0.40827        0.39101
C          1.79465        1.41432        1.18080
C          3.09110        1.87489        1.02525
O          5.11825        1.92830       -0.36145
C          4.24724       -0.53002       -1.79851
H          1.63856       -0.93817       -1.18780
H          1.14038        1.85539        1.91184
C          3.61442        2.97622        1.96053
C          2.35906       -4.17008        2.39336
C          0.92772       -6.18544        2.19105
C          2.20120       -5.33480        0.18698
C         -4.60792       -3.22389        0.62044
C         -3.72871       -4.43320       -1.38592
C         -3.82095       -5.55921        0.87170
C         -0.91123       -6.43577       -0.85552
H          3.12817       -4.83537        2.78515
H          2.87162       -3.35462        1.88490
H          1.81060       -3.75805        3.24004
H          1.77063       -6.78483        2.53413
H          0.33282       -5.90737        3.06038
H          0.31277       -6.81683        1.55440
H          3.06875       -5.93916        0.45074
H          1.58743       -5.91194       -0.49957
H          2.55308       -4.45275       -0.34656
H         -4.59668       -2.30970        0.02893
H         -5.61126       -3.64197        0.54204
H         -4.43566       -2.96060        1.66372
H         -3.57119       -3.49373       -1.91529
H         -3.01623       -5.15468       -1.77805
H         -4.73191       -4.78880       -1.61933
H         -3.65701       -5.43674        1.94178
H         -4.84819       -5.89046        0.72156
H         -3.16600       -6.35370        0.52384
H         -0.12820       -7.19361       -0.83455
H         -1.80890       -6.88891       -1.27546
H         -0.59623       -5.60173       -1.48401
C          5.01826        2.93692       -1.35937
C          5.74440       -0.46933       -1.44539
C          3.85844       -2.02562       -1.83504
C          4.00266        0.07933       -3.18723
C          5.12387        2.81075        2.21342
C          3.33081        4.35355        1.34238
C          2.91335        2.90381        3.33618
H          6.11964        0.55019       -1.47475
H          5.91784       -0.85944       -0.44302
H          6.33629       -1.05814       -2.14572
H          4.53387       -2.58592       -2.48106
H          3.91181       -2.46023       -0.83736
H          2.85096       -2.17401       -2.22029
H          4.58725       -0.43615       -3.94869
H          2.95040        0.00383       -3.46064
H          4.27452        1.13226       -3.20865
H          5.69446        2.93108        1.29567
H          5.48557        3.55166        2.92594
H          5.33968        1.82085        2.61403
H          2.26047        4.50063        1.20396
H          3.69897        5.15282        1.98504
H          3.80867        4.45690        0.37137
H          1.85955        3.17004        3.26604
H          3.37171        3.59745        4.04070
H          2.98744        1.90145        3.75710
H          5.58221        2.63863       -2.24284
H          3.97510        3.09919       -1.63368
H          5.44416        3.86624       -0.98124
