171
-217.84531248
P         -1.60464        0.39575       -0.31916
P          1.60759       -0.42887       -0.31675
C         -0.87838        1.34016       -1.66204
C          0.86212       -1.38409       -1.64710
C         -0.11122        0.70173       -2.62925
C          0.50173        1.47920       -3.63052
C          0.30426        2.85009       -3.63845
C         -0.47497        3.46183       -2.67929
C         -1.06142        2.70096       -1.68706
C          1.04982       -2.74510       -1.64188
C          0.43337       -3.53718       -2.59009
C         -0.38766       -2.95676       -3.53327
C         -0.59141       -1.58713       -3.55712
C          0.06039       -0.77655       -2.60762
Cl         1.68974        0.30507        2.76029
Cl        -1.48609       -0.33827        2.98044
C         -1.49971       -1.00444       -4.58311
C          1.33438        0.84970       -4.69206
H         -0.62636        4.52858       -2.70375
H         -1.66868        3.17052       -0.93046
H          1.68066       -3.19263       -0.89127
H          0.58787       -4.60378       -2.58642
H          0.76936        3.44015       -4.41008
H         -0.88621       -3.57098       -4.26415
C         -3.95383       -3.23870       -1.61500
C         -2.92406       -3.40114       -0.69686
C         -2.20602       -2.27292       -0.32194
C         -2.49877       -1.05069       -0.87302
C         -3.50608       -0.90866       -1.79520
C         -4.26304       -2.00842       -2.18191
H         -4.54812       -4.09368       -1.87951
H         -1.41987       -2.33449        0.41032
H         -3.70456        0.07147       -2.19477
C         -4.32816        2.93315        2.27973
C         -2.96853        3.22365        2.25333
C         -2.15748        2.45888        1.42501
C         -2.68340        1.42783        0.68734
C         -4.02379        1.14050        0.74572
C         -4.87780        1.89266        1.53947
H         -4.97349        3.52958        2.89506
H         -1.10137        2.65597        1.36250
H         -4.40878        0.31456        0.17394
C          4.50906       -2.92452        2.11676
C          3.15348       -3.22578        2.18104
C          2.28412       -2.47263        1.40323
C          2.75544       -1.44797        0.62112
C          4.09542       -1.15363        0.58256
C          5.00417       -1.89423        1.32693
H          5.20348       -3.49741        2.70188
H          1.22637       -2.67416        1.41958
H          4.42530       -0.32999       -0.02477
C          3.79037        3.34710       -1.51606
C          4.06176        2.17418       -2.21055
C          3.35581        1.02970       -1.85694
C          2.42752        1.07313       -0.84576
C          2.17908        2.23821       -0.16431
C          2.85755        3.40484       -0.48784
H          4.33882        4.23255       -1.77664
H          3.53423        0.09091       -2.35298
H          1.46796        2.23157        0.64382
Pd        -0.01279       -0.01953        1.32263
C         -3.83378       -5.19987        0.78610
C         -2.64165       -4.78285       -0.09261
C         -1.36875       -4.76734        0.77544
C         -2.44241       -5.81055       -1.22270
H         -3.99357       -4.47627        1.58532
H         -4.75118       -5.25986        0.20136
H         -3.66127       -6.17480        1.24165
H         -0.50839       -4.43994        0.19272
H         -1.48220       -4.10101        1.63018
H         -1.15142       -5.76276        1.16237
H         -3.34197       -5.91898       -1.82703
H         -1.63127       -5.50436       -1.88220
H         -2.19555       -6.79182       -0.81774
C         -5.53087       -0.48091       -3.77373
C         -5.45930       -1.88235       -3.13580
C         -6.75439       -2.12745       -2.34057
C         -5.34194       -2.92338       -4.26575
H         -5.68409        0.28907       -3.01809
H         -4.61622       -0.25137       -4.31967
H         -6.36134       -0.41811       -4.47678
H         -6.85053       -1.40671       -1.52876
H         -7.63078       -2.03391       -2.98162
H         -6.76328       -3.12522       -1.90288
H         -5.36325       -3.94025       -3.87639
H         -6.16605       -2.82417       -4.97206
H         -4.41101       -2.79541       -4.81657
C         -2.18812        5.59413        2.14383
C         -2.36301        4.37699        3.06671
C         -0.99242        3.95995        3.64053
C         -3.27166        4.76716        4.24956
H         -1.55640        5.34768        1.29163
H         -3.15121        5.92644        1.75679
H         -1.73020        6.42760        2.67620
H         -0.59500        4.73157        4.29956
H         -1.07937        3.03758        4.21446
H         -0.25857        3.79842        2.85312
H         -4.21638        5.18649        3.90530
H         -3.48580        3.90145        4.87610
H         -2.79196        5.52111        4.87362
C         -6.53732        0.08532        2.05231
C         -6.37149        1.53925        1.57056
C         -6.95473        1.68319        0.15250
C         -7.15762        2.46228        2.52088
H         -6.04687       -0.61517        1.37727
H         -6.10001       -0.04361        3.04212
H         -7.59039       -0.18957        2.10892
H         -6.45731        1.01461       -0.54895
H         -8.01850        1.44641        0.14158
H         -6.83114        2.70238       -0.21311
H         -6.78462        2.38287        3.54182
H         -7.08610        3.50305        2.20554
H         -8.21399        2.19409        2.53394
C          3.66005       -4.89379        4.03539
C          2.59665       -4.35554        3.05853
C          2.12906       -5.50602        2.15129
C          1.40733       -3.82798        3.88674
H          4.49303       -5.34988        3.50105
H          4.04907       -4.09510        4.66677
H          3.23480       -5.65627        4.68791
H          2.96256       -5.90410        1.57286
H          1.70346       -6.32002        2.73783
H          1.37135       -5.16429        1.44825
H          0.57960       -3.51896        3.25038
H          1.03207       -4.59567        4.56305
H          1.70724       -2.96763        4.48459
C          7.27977       -2.83917        0.85223
C          6.50856       -1.58844        1.31238
C          6.95722       -1.19139        2.73038
C          6.84288       -0.42988        0.35124
H          7.12112       -3.67580        1.53155
H          6.95407       -3.14779       -0.14101
H          8.35107       -2.64317        0.81041
H          6.40324       -0.31963        3.07812
H          6.78708       -2.00017        3.44008
H          8.01924       -0.94744        2.75009
H          7.91427       -0.23006        0.34332
H          6.54435       -0.66949       -0.66920
H          6.33936        0.48856        0.65266
C          4.84138        3.21983       -4.35942
C          5.15948        2.16380       -3.28418
C          5.27576        0.78697       -3.96685
C          6.51074        2.49285       -2.62270
H          3.87015        3.03055       -4.81426
H          4.82098        4.22362       -3.93706
H          5.59146        3.20847       -5.15005
H          5.54229        0.01319       -3.24717
H          4.33939        0.50418       -4.44598
H          6.04862        0.80063       -4.73525
H          6.49495        3.47944       -2.16092
H          6.74705        1.76512       -1.84688
H          7.31764        2.47950       -3.35517
C          3.47981        5.84868       -0.13166
C          2.57547        4.68350        0.31287
C          2.82943        4.41217        1.80830
C          1.10862        5.09517        0.10324
H          3.31424        6.09627       -1.18002
H          3.27224        6.74388        0.45448
H          4.53255        5.60145        0.00412
H          2.17868        3.62517        2.18671
H          3.86005        4.09840        1.97224
H          2.64927        5.30704        2.40364
H          0.86510        5.98456        0.68408
H          0.91813        5.31471       -0.94660
H          0.43180        4.29788        0.40552
H         -1.03018       -1.00864       -5.56773
H          0.74665        0.67196       -5.59354
H         -1.77083        0.02395       -4.34091
H         -2.42353       -1.57939       -4.65101
H          1.74368       -0.10587       -4.36134
H          2.17214        1.49195       -4.96363
