100
-131.97092557
C         -1.54790        3.90839       -1.34799
C         -2.29618        2.65166       -1.45381
C         -0.15962        3.60038       -1.34453
C          0.02792        2.13077       -1.50126
C          1.18666        1.57868       -2.26183
C         -1.36435        1.56312       -1.53117
C         -1.78218        0.17653       -1.98886
C         -0.87207       -0.44854       -3.02711
Cl         1.11013       -0.49820        2.70884
Cl        -1.80180       -1.55472        2.25528
C          3.25137        0.61386       -3.89208
C          2.50639        1.70290       -4.30025
C          2.98328        0.01682       -2.66869
C          1.49945        2.18141       -3.49997
C          1.96587        0.47263       -1.86420
H         -3.37964        2.56453       -1.55509
H          0.64852        4.33530       -1.37171
H          0.06570       -0.76740       -2.57409
H         -1.32562       -1.32562       -3.49410
H         -0.63521        0.26025       -3.82391
H          4.04900        0.23988       -4.51291
H          2.71633        2.17575       -5.24601
H          3.60231       -0.80119       -2.33872
H          0.91098        3.02305       -3.82255
H         -1.98268        4.91070       -1.32056
P          1.86396       -0.27195       -0.22191
H         -2.77757        0.28933       -2.43335
P         -2.05106       -0.96054       -0.54774
H         -3.05650       -2.83065       -1.72848
C         -1.95982       -3.79123       -0.12486
C         -2.12369       -2.69464       -1.18201
C         -3.20424       -3.94918        0.74981
H         -3.69231        0.65165        0.14560
C         -4.93155       -1.02798       -0.39725
C         -3.65613       -0.43601        0.20822
H         -4.84248       -2.12714       -0.36096
C         -6.14852       -0.62774        0.44316
H          3.57160       -1.92128       -0.64271
H          2.79698        0.56064        1.84979
C          3.63582        3.16170        1.41341
C          2.74076        2.26822        0.53536
C          3.01167        0.78147        0.79875
C          4.48980        0.46022        0.53102
C          5.41480        1.34741        1.39036
C          5.12273        2.84395        1.16473
H          3.39640        2.98734        2.46971
H          3.42367        4.22501        1.23393
H          2.94797        2.47953       -0.52103
H          1.67770        2.49748        0.67135
H          4.69424       -0.60291        0.71223
H          4.70093        0.62567       -0.53214
H          5.26518        1.10482        2.44981
H          6.47038        1.12116        1.18436
H          5.38320        3.11259        0.13320
H          5.76609        3.46742        1.80164
C          2.31175       -4.29297       -1.35340
C          1.73965       -2.86422       -1.26022
C          2.54338       -2.00676       -0.27372
C          2.58982       -2.67068        1.11115
C          3.17388       -4.09394        1.02625
C          2.36701       -4.95590        0.03632
H          3.32365       -4.24979       -1.77507
H          1.72777       -4.90285       -2.05668
H          0.70015       -2.90576       -0.91852
H          1.70570       -2.38659       -2.24878
H          3.15112       -2.04759        1.82022
H          1.57361       -2.72618        1.51713
H          4.21792       -4.03831        0.69402
H          3.20530       -4.56290        2.01968
H          1.34633       -5.08410        0.41801
H          2.78490       -5.97035       -0.03035
H         -1.11902       -3.49607        0.52854
C         -1.60246       -5.12764       -0.78323
H         -3.61438       -0.67733        1.27018
C         -5.13507       -0.62546       -1.85837
H         -1.32412       -2.78358       -1.91780
H         -3.05789       -4.71557        1.51254
H         -4.06362       -4.24778        0.14902
H         -3.45827       -3.02198        1.26208
H         -1.43648       -5.90862       -0.03954
H         -2.40997       -5.46075       -1.43592
H         -0.70140       -5.04859       -1.39271
H         -7.06768       -1.06868        0.05419
H         -6.03907       -0.94313        1.48207
H         -6.27617        0.45527        0.44070
H         -5.14096        0.45991       -1.96305
H         -4.35338       -1.02473       -2.50464
H         -6.08849       -0.99430       -2.24032
Fe        -1.06128        2.67223        0.20238
C         -2.59989        2.92013        1.56567
C         -1.76380        4.10618        1.50730
C         -0.40263        3.71977        1.83067
C         -0.40543        2.29211        2.08231
C         -1.76287        1.80250        1.94689
H         -3.68014        2.88807        1.40613
H         -2.10640        5.12091        1.29149
H          0.45978        4.38749        1.89780
H          0.44241        1.68910        2.41095
H         -2.07964        0.77486        2.12892
Pd        -0.16597       -0.80939        0.86131
