64
-97.20943715
Cl        -1.50903       -1.50831       -2.57683
Cl         1.60619       -1.40602       -2.95555
P          1.93727       -0.62127        0.29272
C          2.18567       -2.29589        1.04087
C          3.70367       -0.16348       -0.04267
P         -1.27806       -0.16140        0.38814
C          1.23380        0.58098        1.47393
C         -0.19560        0.80974        1.50370
C         -0.45098        1.92409        2.40504
C          0.82536        2.37804        2.92988
C          1.86957        1.54619        2.35716
H         -1.42508        2.36321        2.62520
H          0.97365        3.19876        3.63526
Pd         0.22354       -0.96388       -1.24929
H          2.94242        1.63475        2.54012
C         -4.88237        2.36869       -0.78320
C         -4.14319        1.74009       -1.76531
C         -3.06238        0.95379       -1.41435
C         -2.71418        0.81087       -0.09046
C         -3.46245        1.41865        0.89221
C         -4.54843        2.20315        0.54644
H         -5.72730        2.98064       -1.05413
H         -4.41259        1.85393       -2.80258
H         -2.50349        0.42409       -2.16677
H         -3.20359        1.26497        1.92734
H         -5.13275        2.68281        1.31448
C         -2.70384       -3.97677        2.39772
C         -2.36173       -2.88059        3.16589
C         -1.93313       -1.71652        2.55320
C         -1.84834       -1.66110        1.18128
C         -2.19275       -2.74756        0.41231
C         -2.62160       -3.91243        1.02034
H         -3.03765       -4.88408        2.87429
H         -2.42752       -2.93108        4.24034
H         -1.65916       -0.85195        3.13685
H         -2.12221       -2.67307       -0.66089
H         -2.89047       -4.76624        0.42035
C          4.02151       -0.16342       -1.52145
H          3.85774        0.83686        0.38289
C          4.49081       -1.22875        0.74613
H          4.71799       -0.85579        1.75562
C          3.69332       -2.55617        0.85537
H          5.46523       -1.39954        0.26564
C          1.74337       -2.29351        2.48799
H          1.58435       -3.00353        0.45370
H          4.06743       -3.16645        1.69004
H          3.86102       -3.15726       -0.05020
H          0.68774       -2.03060        2.58007
H          1.88984       -3.27042        2.95481
H          2.31424       -1.56090        3.06205
H          3.40081        0.54829       -2.06829
H          5.06725        0.09184       -1.70661
H          3.84226       -1.15076       -1.94998
Fe         0.80235        2.46032        0.87379
C          2.11313        3.17998       -0.52852
C          1.40206        4.27400        0.11070
C         -0.02099        4.06894       -0.10062
C         -0.18830        2.85037       -0.87114
C          1.12818        2.29820       -1.12649
H          3.19789        3.06136       -0.57813
H          1.85812        5.11451        0.63872
H         -0.82391        4.72526        0.24284
H         -1.13751        2.43065       -1.20530
H          1.34063        1.41646       -1.73405
