171
-217.84352900
P         -1.60424        0.37696       -0.43840
P          1.57620       -0.42336       -0.29437
C         -0.86038        1.26623       -1.80433
C          0.89944       -1.44320       -1.60750
C         -0.04638        0.59778       -2.71133
C          0.59568        1.34361       -3.71897
C          0.36485        2.70678       -3.80281
C         -0.47278        3.34373       -2.91149
C         -1.07697        2.61838       -1.90332
C          1.10176       -2.80053       -1.54367
C          0.53556       -3.63319       -2.48824
C         -0.24894       -3.09589       -3.48644
C         -0.46630       -1.73016       -3.56752
C          0.13649       -0.87788       -2.62288
Cl         1.52441        0.44746        2.82466
Cl        -1.63883       -0.49710        2.84879
C         -1.31832       -1.18678       -4.65997
C          1.51425        0.69822       -4.69686
H         -0.65025        4.40336       -2.99643
H         -1.72066        3.10750       -1.18973
H          1.70575       -3.21239       -0.75170
H          0.70149       -4.69702       -2.44012
H          0.85303        3.27113       -4.57945
H         -0.70460       -3.74172       -4.21800
C         -3.99603       -3.26550       -1.64274
C         -2.95227       -3.41356       -0.73776
C         -2.22736       -2.28068       -0.39106
C         -2.52589       -1.06636       -0.95619
C         -3.54890       -0.93861       -1.86340
C         -4.32118       -2.03978       -2.21270
H         -4.57685       -4.13255       -1.89465
H         -1.42779       -2.33311        0.32740
H         -3.75510        0.03058       -2.28648
C         -4.19883        2.97036        2.24222
C         -4.79638        1.95149        1.50929
C         -3.98976        1.19901        0.66624
C         -2.64555        1.45756        0.56351
C         -2.07372        2.47207        1.29170
C         -2.83839        3.24294        2.15694
H         -4.80511        3.55762        2.90438
H         -4.41145        0.38932        0.09733
H         -1.01402        2.64517        1.20911
C          4.36563       -2.75960        2.42167
C          3.01581       -3.09365        2.40374
C          2.18299       -2.39319        1.54122
C          2.68046       -1.38646        0.75216
C          4.01239       -1.05969        0.79533
C          4.88627       -1.74383        1.62806
H          5.02521       -3.29742        3.07486
H          1.13139       -2.62100        1.49794
H          4.37414       -0.25166        0.18414
C          3.88541        3.23004       -1.61504
C          2.87584        3.38215       -0.67199
C          2.14725        2.25473       -0.31733
C          2.43530        1.03490       -0.87642
C          3.43891        0.89890       -1.80362
C          4.18919        2.00266       -2.19188
H          4.46857        4.08507       -1.90023
H          1.35804        2.32118        0.41135
H          3.64101       -0.07996       -2.20454
Pd        -0.08408        0.00433        1.30579
C         -2.43284       -5.81881       -1.24196
C         -2.65898       -4.78753       -0.12054
C         -3.85594       -5.21522        0.74689
C         -1.39845       -4.75061        0.76469
H         -3.32298       -5.94011       -1.85776
H         -1.61656       -5.50678       -1.89233
H         -2.18037       -6.79506       -0.82843
H         -4.76543       -5.29376        0.15218
H         -3.67472       -6.18389        1.21230
H         -4.03579       -4.48785        1.53839
H         -1.18139       -5.73854        1.17052
H         -0.53106       -4.42848        0.18968
H         -1.52810       -4.07101        1.60663
C         -6.31262       -3.16975       -3.32948
C         -5.51181       -1.86306       -3.16772
C         -5.00149       -1.42867       -4.55227
C         -6.45645       -0.78391       -2.60580
H         -7.16510       -3.02092       -3.99216
H         -5.69601       -3.95819       -3.76062
H         -6.69668       -3.51500       -2.36968
H         -5.83134       -1.26563       -5.23975
H         -4.43226       -0.50188       -4.49009
H         -4.35753       -2.19515       -4.98173
H         -5.96030        0.18398       -2.55006
H         -7.33703       -0.66813       -3.23744
H         -6.79241       -1.05015       -1.60376
C         -6.48023        0.13483        1.92654
C         -6.29512        1.63041        1.60211
C         -6.96055        1.95452        0.25338
C         -6.98882        2.45319        2.70494
H         -7.53564       -0.11137        2.04158
H         -6.07821       -0.49889        1.13716
H         -5.96985       -0.12269        2.85434
H         -6.84450        3.01051        0.01016
H         -6.51155        1.37639       -0.55254
H         -8.02616        1.72715        0.27741
H         -8.04377        2.18912        2.77819
H         -6.53252        2.26685        3.67701
H         -6.93283        3.52095        2.49439
C         -1.07652        3.63215        3.89260
C         -2.14807        4.31100        3.01716
C         -3.14546        5.03628        3.94047
C         -1.48487        5.35313        2.10016
H         -0.57347        4.35908        4.52976
H         -1.52732        2.87426        4.53280
H         -0.31808        3.14115        3.28441
H         -3.91679        5.54506        3.36259
H         -3.62774        4.33691        4.62314
H         -2.63662        5.78769        4.54418
H         -0.99378        6.13209        2.68314
H         -0.73375        4.89045        1.46365
H         -2.22455        5.82711        1.45525
C          2.00311       -5.37998        2.39527
C          2.42250       -4.19958        3.28779
C          1.19265       -3.65180        4.04010
C          3.43895       -4.70314        4.33071
H          1.55437       -6.17833        2.98605
H          1.27728       -5.06480        1.64759
H          2.86462       -5.79041        1.86885
H          1.46149       -2.77459        4.62812
H          0.39831       -3.36141        3.35427
H          0.78407       -4.40117        4.71762
H          3.78851       -3.88561        4.96104
H          2.98710       -5.45311        4.97985
H          4.30179       -5.16428        3.85080
C          6.48264        0.13931        2.06046
C          6.36733       -1.34016        1.64637
C          6.96089       -1.52994        0.23798
C          7.17962       -2.19175        2.64033
H          6.03765        0.29920        3.04230
H          7.52568        0.45185        2.10631
H          5.97120        0.79083        1.35271
H          6.44536       -0.91055       -0.49487
H          8.01652       -1.25964        0.21917
H          6.87173       -2.56828       -0.08074
H          8.22719       -1.89073        2.64107
H          6.80240       -2.07498        3.65612
H          7.14066       -3.24817        2.37531
C          1.21225        5.24370       -0.62422
C          2.53844        4.73774       -0.03505
C          3.63546        5.78459       -0.31032
C          2.40296        4.57734        1.49266
H          0.91559        6.18955       -0.17136
H          1.30428        5.39719       -1.69912
H          0.41442        4.52126       -0.45890
H          3.71590        6.00292       -1.37485
H          3.41083        6.72223        0.19802
H          4.60484        5.43650        0.04613
H          2.20863        5.53776        1.96974
H          1.58454        3.90966        1.75582
H          3.31834        4.16762        1.91896
C          5.19938        2.89247       -4.31761
C          5.37270        1.88725       -3.16314
C          5.48177        0.47105       -3.76189
C          6.67400        2.19591       -2.40006
H          4.26315        2.71866       -4.84640
H          5.19190        3.91932       -3.95462
H          6.01338        2.80256       -5.03676
H          5.66151       -0.27189       -2.98523
H          4.57215        0.19836       -4.29577
H          6.30982        0.41281       -4.46818
H          6.66166        3.20650       -1.99315
H          6.80669        1.50357       -1.56890
H          7.54106        2.10866       -3.05455
H         -2.10630       -1.89214       -4.92472
H          1.04258        0.61069       -5.67653
H         -0.72869       -0.99572       -5.55729
H         -1.79552       -0.25216       -4.36173
H          1.80840       -0.30047       -4.37138
H          2.42443        1.28600       -4.81718
