171
-217.83600063
P         -1.76185        0.59713       -0.24096
P          1.46069       -0.29791       -0.33162
C         -1.02757        1.68834       -1.48775
C          0.72985       -1.03011       -1.80586
C         -0.14200        1.22392       -2.45821
C          0.55610        2.15725       -3.24946
C          0.28947        3.50681       -3.09943
C         -0.63067        3.94854       -2.17399
C         -1.27205        3.03586       -1.36001
C          0.85582       -2.38103       -2.02508
C          0.30312       -2.96281       -3.14889
C         -0.39360       -2.18512       -4.04803
C         -0.55468       -0.82605       -3.83636
C          0.02537       -0.23296       -2.69815
Cl         1.69794        1.07748        2.63083
Cl        -1.39430        0.49741        3.08118
C         -1.32753       -0.00394       -4.80899
C          1.59866        1.73148       -4.22442
H         -0.83268        5.00220       -2.06982
H         -1.97267        3.38308       -0.61961
H          1.37693       -2.99238       -1.30826
H          0.41526       -4.02031       -3.32339
H          0.81435        4.21372       -3.71975
H         -0.82417       -2.63533       -4.92629
C         -2.98583       -3.61063       -1.38342
C         -2.02979       -3.43190       -0.39200
C         -1.67368       -2.13056       -0.06397
C         -2.23460       -1.06412       -0.72599
C         -3.17310       -1.25908       -1.70915
C         -3.57608       -2.54416       -2.05227
H         -3.28287       -4.61309       -1.62712
H         -0.95032       -1.94141        0.70903
H         -3.59893       -0.40233       -2.20410
C         -5.00362        2.71566        2.12034
C         -5.35703        1.61557        1.34755
C         -4.35654        0.97950        0.62154
C         -3.06239        1.43503        0.67306
C         -2.73340        2.52174        1.44444
C         -3.69852        3.18771        2.18569
H         -5.76843        3.20479        2.69370
H         -4.57540        0.11507        0.02049
H         -1.70300        2.83277        1.49997
C          3.84733       -3.52830        1.82930
C          2.92786       -2.79194        2.56484
C          2.19661       -1.81958        1.89869
C          2.39015       -1.57262        0.56065
C          3.31910       -2.30245       -0.14191
C          4.05444       -3.30738        0.47411
H          4.42726       -4.28797        2.31870
H          1.48721       -1.23132        2.44985
H          3.45389       -2.09752       -1.18912
C          4.24710        3.12597       -1.36518
C          3.12382        3.38055       -0.58856
C          2.28650        2.31408       -0.29078
C          2.56982        1.04985       -0.74521
C          3.68043        0.81868       -1.51753
C          4.54601        1.85493       -1.84290
H          4.90605        3.94273       -1.59215
H          1.40144        2.46676        0.30039
H          3.87645       -0.17678       -1.87369
Pd        -0.02140        0.48585        1.30359
C         -2.55431       -5.36551        1.10835
C         -1.43542       -4.64937        0.33112
C         -0.33413       -4.23667        1.32575
C         -0.81597       -5.61599       -0.69517
H         -2.16401       -6.22685        1.65017
H         -3.01241       -4.69069        1.83127
H         -3.33687       -5.71834        0.43746
H          0.09394       -5.11268        1.81249
H          0.47587       -3.71344        0.81939
H         -0.73315       -3.58654        2.10367
H         -0.39076       -6.48861       -0.19960
H         -1.55750       -5.96882       -1.41057
H         -0.01780       -5.12682       -1.25131
C         -4.97445       -4.23480       -3.34743
C         -4.67113       -2.74251       -3.11126
C         -4.21696       -2.12379       -4.44414
C         -5.96205       -2.05068       -2.63731
H         -5.74871       -4.35651       -4.10488
H         -4.08765       -4.76472       -3.69484
H         -5.32980       -4.71273       -2.43469
H         -4.04154       -1.05392       -4.34161
H         -3.29372       -2.58891       -4.78739
H         -4.97226       -2.26398       -5.21725
H         -5.81210       -0.97813       -2.52130
H         -6.77027       -2.19803       -3.35345
H         -6.28401       -2.45220       -1.67666
C         -7.00299       -0.07421        0.39264
C         -6.81176        1.12405        1.34223
C         -7.73629        2.26403        0.87589
C         -7.20187        0.68641        2.76575
H         -6.74523        0.19683       -0.63058
H         -6.38443       -0.91901        0.69518
H         -8.04033       -0.40864        0.39432
H         -7.45455        2.60432       -0.12042
H         -8.77417        1.93345        0.83860
H         -7.68430        3.11899        1.54882
H         -8.22589        0.31435        2.79322
H         -6.54375       -0.10807        3.11711
H         -7.12890        1.51568        3.46843
C         -2.28298        3.87495        4.13192
C         -3.27584        4.37275        3.06461
C         -4.48251        5.01465        3.77482
C         -2.59803        5.44271        2.18743
H         -1.97211        4.68815        4.78733
H         -2.73710        3.09809        4.74646
H         -1.38852        3.45365        3.67437
H         -5.21384        5.37800        3.05304
H         -4.97351        4.30140        4.43652
H         -4.16721        5.86312        4.38202
H         -2.30926        6.30898        2.78235
H         -1.69905        5.05434        1.71026
H         -3.27373        5.78169        1.40244
C          3.60573       -4.11259        4.63377
C          2.74259       -2.96289        4.08024
C          1.26670       -3.26905        4.39495
C          3.15536       -1.65531        4.78190
H          3.34944       -5.05878        4.15737
H          4.66639       -3.91998        4.47386
H          3.45130       -4.22994        5.70633
H          1.11422       -3.38480        5.46779
H          0.61157       -2.46883        4.05294
H          0.95417       -4.19368        3.91158
H          2.53662       -0.82026        4.45520
H          3.05439       -1.74284        5.86340
H          4.19275       -1.40885        4.55713
C          5.10085       -3.80022       -1.79458
C          5.07548       -4.15766       -0.29493
C          4.70273       -5.64598       -0.15979
C          6.47848       -3.91489        0.28964
H          5.39359       -2.76181       -1.94714
H          5.81710       -4.42444       -2.32866
H          4.12329       -3.95502       -2.25115
H          3.69794       -5.82648       -0.54182
H          5.39505       -6.27384       -0.72043
H          4.72852       -5.96975        0.87993
H          7.23005       -4.49563       -0.24486
H          6.74896       -2.86169        0.21480
H          6.52296       -4.19755        1.34081
C          4.02150        5.21681        0.85837
C          2.85532        4.79445       -0.05338
C          1.55045        4.85384        0.76737
C          2.73511        5.77629       -1.23255
H          4.13152        4.51876        1.68809
H          4.96352        5.23785        0.31165
H          3.85313        6.21068        1.27267
H          1.36879        5.86392        1.13403
H          0.69230        4.56405        0.16228
H          1.60035        4.19370        1.63313
H          2.53242        6.78707       -0.87898
H          3.65212        5.80618       -1.81968
H          1.92258        5.48299       -1.89572
C          6.70701        0.59455       -1.85796
C          5.80711        1.54953       -2.66411
C          6.60546        2.82868       -2.98045
C          5.41061        0.88394       -3.99567
H          6.99038        1.04432       -0.90660
H          6.19485       -0.34259       -1.64324
H          7.61903        0.35974       -2.40642
H          5.99970        3.53885       -3.54317
H          6.94931        3.31368       -2.06709
H          7.48558        2.59659       -3.58006
H          4.87271       -0.04887       -3.83115
H          4.77010        1.54269       -4.58106
H          6.29265        0.65639       -4.59405
H         -1.90851       -0.62899       -5.48816
H          1.29174        1.94924       -5.24834
H         -0.66258        0.60995       -5.41691
H         -2.02040        0.66182       -4.29189
H          1.80611        0.66311       -4.15165
H          2.53385        2.26081       -4.03632
