72
-98.09066670
Fe         0.02478        2.80872       -0.05445
P          1.87935       -0.09272        0.01262
P         -1.85537       -0.07193       -0.05768
C          1.43267        1.56536        0.66383
C          0.42849        1.83277        1.67955
C          0.39898        3.26390        1.92479
C          1.39182        3.88345        1.06581
C          2.04057        2.83437        0.29721
C         -1.39236        1.56734       -0.74674
C         -1.98479        2.85134       -0.40545
C         -1.31393        3.87572       -1.18847
C         -0.33587        3.22538       -2.04178
C         -0.38872        1.79949       -1.77167
C          3.16276       -0.78395        1.14946
C          4.42949       -0.07684        0.64188
C          2.95860        0.08317       -1.48882
C          4.39225        0.13438       -0.90085
C         -3.07011       -0.86528       -1.21725
C         -4.41097       -0.80572       -0.45605
C         -2.96576        0.16822        1.41120
C         -4.35602        0.17849        0.74396
H         -0.19145        1.08366        2.17034
H         -0.24817        3.77989        2.63762
H          1.62869        4.94889        1.02378
H          2.84946        2.96847       -0.42395
H         -2.78639        3.01467        0.31767
H          0.22292        1.03357       -2.24620
Cl         1.61422       -3.06409       -0.07529
Cl        -1.63294       -3.02381        0.30484
Pd         0.00295       -1.48882        0.04143
H          3.23241       -1.86181        0.96598
C          2.81310       -0.51816        2.60807
H          2.68821        1.03333       -1.96469
C          2.77890       -1.07128       -2.47447
H          5.33005       -0.63475        0.94210
H          4.50648        0.89715        1.14661
H          4.88403        1.08073       -1.17059
H          4.99486       -0.64687       -1.38448
H         -1.53272        4.94578       -1.16468
H          0.31904        3.71861       -2.76363
H          2.74279        0.56634        2.76499
H          3.60735       -1.05226       -3.19654
H         -2.74664       -1.90279       -1.36324
C         -3.07923       -0.15045       -2.56442
H         -2.72238        1.14171        1.85392
C         -2.83936       -0.93356        2.46264
H         -4.67991       -1.80851       -0.09362
H         -5.21680       -0.51863       -1.14539
H         -4.59447        1.19429        0.39481
H         -5.12924       -0.07029        1.48625
H         -3.44510        0.87459       -2.41791
H         -2.95957       -1.90385        1.96486
C          3.81141       -1.12852        3.57982
H          4.81314       -0.72345        3.42602
H          3.53785       -0.94042        4.62053
H          3.87743       -2.21005        3.44742
C          1.45665       -1.06342       -3.22577
H          1.34013       -0.15035       -3.81239
H          1.37733       -1.90528       -3.91741
H          0.60692       -1.12860       -2.54646
C         -3.90643       -0.86727       -3.62212
H         -4.95277       -0.95289       -3.32518
H         -3.88174       -0.34671       -4.58220
H         -3.53677       -1.88075       -3.78916
C         -1.54174       -0.90564        3.25371
H         -1.42055        0.04125        3.78298
H         -1.50285       -1.70254        3.99992
H         -0.67546       -1.03399        2.60545
H          1.80432       -0.90410        2.80993
H          2.89816       -2.01522       -1.92703
H         -2.04387       -0.03986       -2.91561
H         -3.69019       -0.86189        3.15439
