72
-108.40489856
Cl        -1.78059        0.79183        2.69461
Cl         0.98166       -0.83011        2.77667
P          1.09812       -1.13422       -0.30212
P         -2.23861        0.10874       -0.37934
C         -3.22976       -1.49254       -0.14795
C         -3.59177       -1.65389        1.32994
C         -4.49215       -1.45395       -1.00178
C         -3.32836        1.65179       -0.12332
C         -4.13802        1.95004       -1.39267
C         -1.45189        0.41518       -2.06694
C         -1.51099       -0.74534       -3.03848
C          1.12510        0.22418       -1.50872
C         -0.04006        0.96322       -1.98931
C          0.47007        2.06755       -2.80352
C          1.91614        1.96988       -2.86553
C          2.31956        0.82050       -2.07816
C         -2.36277       -2.67812       -0.54673
H         -2.70390       -1.62609        1.96159
H         -4.27303       -0.88150        1.67609
H         -5.18278       -0.68453       -0.66095
H         -5.02032       -2.40731       -0.94788
C         -4.29292        1.50530        1.04996
H         -4.61287        1.05495       -1.79042
H         -3.52347        2.38748       -2.17873
H         -2.06530        1.21948       -2.48281
H         -0.85188       -1.54690       -2.71423
H         -1.16391       -0.44339       -4.02878
H         -2.51872       -1.14265       -3.15307
H         -0.14588        2.76887       -3.36952
H          2.58199        2.62680       -3.42952
Pd        -0.49820       -0.24805        1.18598
H          3.34010        0.47994       -1.89083
C         -2.36519        2.79819        0.14700
H         -4.92589        2.67478       -1.18067
H         -3.77644        1.20465        1.95883
H         -4.78445        2.45655        1.25895
H         -5.07958        0.78441        0.83543
H         -1.60322        2.86123       -0.63124
H         -2.89343        3.75317        0.17993
H         -1.87094        2.66367        1.10783
H         -4.08458       -2.61243        1.50061
H         -4.26236       -1.26343       -2.04893
H         -1.43625       -2.67767        0.02467
H         -2.87485       -3.61956       -0.34037
H         -2.12042       -2.67365       -1.60624
C          2.77032       -1.23222        0.39145
C          3.22621       -2.23802        1.20706
C          4.54987       -1.93795        1.52841
C          4.85005       -0.75952        0.89134
O          3.76696       -0.31613        0.18907
H          2.65846       -3.08702        1.54974
H          5.20673       -2.51619        2.15752
H          5.80089       -0.24261        0.93153
C          0.73943       -2.73503       -1.04892
C          0.65355       -3.90143       -0.32915
C          0.37013       -4.92230       -1.23743
C          0.29621       -4.33490       -2.47654
O          0.51775       -2.99105       -2.37453
H          0.76360       -3.99877        0.73893
H          0.23535       -5.96720       -1.01032
H          0.09107       -4.84748       -3.40819
Fe         1.29333        2.13175       -0.91398
C          2.96806        2.78828        0.06592
C          2.15478        2.00141        0.97176
C          0.86128        2.63962        1.07198
C          0.87051        3.82317        0.23425
C          2.17954        3.92184       -0.38382
H          4.00443        2.57516       -0.20611
H          2.45523        1.08499        1.48263
H          0.05230        2.30528        1.72292
H          0.05712        4.54392        0.12852
H          2.51616        4.71399       -1.05627
