171
-217.84338054
P         -1.65733        0.42424       -0.40438
P          1.58552       -0.37738       -0.36496
C         -0.91853        1.39963       -1.71940
C          0.88327       -1.31061       -1.72337
C         -0.07859        0.80686       -2.65633
C          0.58810        1.63139       -3.58373
C          0.35876        2.99698       -3.56455
C         -0.50472        3.56080       -2.64965
C         -1.13528        2.75639       -1.72131
C          1.10464       -2.66472       -1.77379
C          0.54785       -3.41964       -2.78754
C         -0.24373       -2.80911       -3.73748
C         -0.47764       -1.44399       -3.70258
C          0.11140       -0.67028       -2.68514
Cl         1.60728        0.56546        2.72377
Cl        -1.56188       -0.30873        2.86771
C         -1.31536       -0.80677       -4.75491
C          1.54984        1.07232       -4.57375
H         -0.67811        4.62455       -2.64978
H         -1.79995        3.19116       -0.99276
H          1.71776       -3.13134       -1.01940
H          0.73098       -4.48065       -2.83483
H          0.87103        3.62135       -4.27714
H         -0.68688       -3.39572       -4.52443
C         -3.88561       -3.33435       -1.57134
C         -2.87070       -3.41481       -0.62509
C         -2.17176       -2.25337       -0.32477
C         -2.49398       -1.06674       -0.93500
C         -3.50752       -1.00039       -1.85918
C         -4.22852       -2.14004       -2.19597
H         -4.43082       -4.22413       -1.81965
H         -1.37779       -2.26805        0.40206
H         -3.74984       -0.04872       -2.30215
C         -4.34651        2.79710        2.37501
C         -4.88269        1.71890        1.68189
C         -4.04993        1.02636        0.81153
C         -2.74332        1.41146        0.63992
C         -2.23165        2.48067        1.33304
C         -3.02319        3.19290        2.22355
H         -4.97811        3.32678        3.06297
H         -4.40753        0.16430        0.27715
H         -1.19576        2.74435        1.20055
C          4.19007       -2.93389        2.33718
C          2.81906       -3.16581        2.31437
C          2.04377       -2.40336        1.45068
C          2.61723       -1.43240        0.66769
C          3.97028       -1.20901        0.71321
C          4.78835       -1.96180        1.54358
H          4.80462       -3.51580        2.99652
H          0.97760       -2.54919        1.40987
H          4.39326       -0.42545        0.10971
C          4.02230        3.18265       -1.70502
C          2.97656        3.38746       -0.81359
C          2.23460        2.28166       -0.41867
C          2.52164        1.03922       -0.92494
C          3.54320        0.85546       -1.82383
C          4.32373        1.93170       -2.22919
H          4.63357        4.02110       -1.98327
H          1.43313        2.37663        0.29309
H          3.73068       -0.13800       -2.19490
Pd        -0.03920        0.08721        1.25700
C         -1.14289       -5.21135       -0.44292
C         -2.50242       -4.72616        0.08412
C         -3.55205       -5.82583       -0.16901
C         -2.41656       -4.48681        1.60515
H         -0.37317       -4.45833       -0.28137
H         -0.83195       -6.12882        0.05638
H         -1.19588       -5.41014       -1.51297
H         -3.59787       -6.09327       -1.22438
H         -3.30454       -6.73084        0.38575
H         -4.54240       -5.50091        0.14965
H         -3.36018       -4.09768        1.98680
H         -2.19514       -5.41376        2.13382
H         -1.63547       -3.77119        1.85626
C         -6.07440       -3.40133       -3.42069
C         -5.39776       -2.03623       -3.18784
C         -4.88324       -1.51562       -4.54087
C         -6.45024       -1.06293       -2.62669
H         -6.89757       -3.30838       -4.12907
H         -5.36871       -4.12453       -3.82913
H         -6.48327       -3.80070       -2.49271
H         -4.41729       -0.53656       -4.43768
H         -4.14736       -2.20141       -4.95892
H         -5.69866       -1.42190       -5.25794
H         -6.82323       -1.41542       -1.66543
H         -6.03134       -0.06773       -2.48221
H         -7.29899       -0.97210       -3.30429
C         -6.48388        0.84401        3.39586
C         -6.33709        1.29567        1.93170
C         -6.75337        0.12971        1.01437
C         -7.27467        2.48603        1.65602
H         -6.24411        1.65348        4.08442
H         -7.50264        0.51772        3.60420
H         -5.81155        0.01344        3.61027
H         -7.79260       -0.14890        1.18835
H         -6.65664        0.40975       -0.03390
H         -6.14148       -0.75372        1.19608
H         -7.15836        2.83755        0.63097
H         -8.31712        2.20183        1.79887
H         -7.06475        3.32144        2.32265
C         -3.38718        4.92302        4.05589
C         -2.40902        4.36162        3.00617
C         -2.04404        5.48641        2.02192
C         -1.14216        3.87482        3.73764
H         -2.92455        5.73180        4.62143
H         -4.28382        5.32429        3.58406
H         -3.68459        4.15078        4.76513
H         -1.34666        5.13304        1.26437
H         -2.93304        5.85270        1.50883
H         -1.58154        6.32612        2.54032
H         -0.38258        3.53060        3.03761
H         -0.70379        4.67453        4.33413
H         -1.37850        3.04559        4.40404
C          1.42507       -5.24876        2.37334
C          2.13192       -4.18649        3.23271
C          1.09609       -3.45514        4.10903
C          3.13999       -4.89545        4.15705
H          0.66418       -4.79515        1.74179
H          2.13764       -5.75917        1.72571
H          0.93730       -5.99699        2.99787
H          0.60196       -4.14707        4.79060
H          1.57609       -2.67811        4.70341
H          0.32651       -2.97916        3.50274
H          3.65739       -4.17936        4.79522
H          2.63294       -5.60916        4.80630
H          3.88262       -5.44570        3.57957
C          6.87402       -1.88106        0.15486
C          6.29567       -1.67130        1.56688
C          7.04167       -2.59896        2.54462
C          6.52155       -0.21216        2.00618
H          6.40900       -1.21063       -0.56672
H          7.94741       -1.69287        0.14043
H          6.70524       -2.90354       -0.18237
H          6.67933       -2.46735        3.56398
H          6.91758       -3.64496        2.26484
H          8.10982       -2.38199        2.54430
H          6.09138       -0.03682        2.99197
H          7.58502        0.02118        2.05418
H          6.05835        0.48758        1.31137
C          1.41945        4.81701        0.59468
C          2.69703        4.79300       -0.26581
C          2.50853        5.77469       -1.43772
C          3.88548        5.24019        0.60313
H          1.20646        5.82678        0.94515
H          0.55997        4.47504        0.01903
H          1.52481        4.18012        1.47249
H          1.69663        5.44751       -2.08628
H          2.26819        6.77368       -1.07432
H          3.41049        5.85070       -2.04347
H          4.03805        4.54760        1.43073
H          4.80666        5.27502        0.02238
H          3.71340        6.23252        1.01959
C          6.81955        1.96960       -2.33404
C          5.53549        1.75672       -3.15557
C          5.47786        2.78657       -4.30056
C          5.57466        0.34636       -3.77674
H          6.84891        2.97097       -1.90546
H          6.87532        1.25429       -1.51366
H          7.70662        1.84290       -2.95437
H          5.52599        3.80729       -3.92400
H          6.31326        2.65024       -4.98716
H          4.55552        2.68259       -4.87066
H          6.41367        0.25051       -4.46579
H          5.69305       -0.41944       -3.01072
H          4.66179        0.13841       -4.33436
H         -1.99700       -1.52825       -5.20579
H          1.15911        1.15551       -5.58888
H         -0.69497       -0.39627       -5.55224
H         -1.91368        0.00605       -4.34074
H          1.76418        0.02101       -4.37789
H          2.49633        1.61207       -4.53497
