111
-148.55446479
P         -2.52958        2.06817        0.90271
P          0.12024        0.38565        0.51952
C         -1.44883        1.75530        2.32583
C         -0.27169        1.06283        2.14248
C         -3.30736        3.74574        0.99759
C         -2.66271        4.71680        0.03277
C         -1.79694        2.19675        3.58654
H         -2.72857        2.71869        3.73070
C         -0.95615        1.95175        4.65864
H         -1.22710        2.29653        5.64321
C          0.22757        1.26446        4.46956
H          0.88081        1.07220        5.30471
C          0.56891        0.81387        3.20700
H          1.48067        0.26065        3.04357
Pd        -1.31133        1.43732       -0.95831
Cl        -2.95190        2.35427       -2.18460
Cl        -0.03111        0.77463       -2.68045
C         -4.79276        3.44793        0.72185
C         -4.04337        1.00394        0.87320
H         -3.12261        5.70581        0.09477
H         -1.59431        4.82546        0.23396
H         -2.76770        4.37027       -0.99592
H         -4.98083        3.56282       -0.35458
H         -5.43277        4.19492        1.21568
H         -4.12577        0.62166       -0.15314
C         -5.17677        2.00597        1.16240
C         -3.93516       -0.13532        1.86350
H         -3.17571        4.09040        2.03104
H         -5.39015        1.99707        2.24013
H         -6.10845        1.68136        0.67459
H         -3.78701        0.24415        2.87622
H         -4.83857       -0.74957        1.86697
H         -3.08741       -0.78258        1.62874
C         -1.15979       -3.97729        0.22741
C         -1.08646       -3.35593        1.50094
C         -0.67835       -2.03405        1.56431
C         -0.42751       -1.31809        0.42356
C         -0.60903       -1.88229       -0.81102
C         -1.00824       -3.19916       -0.94826
O         -1.34551       -5.38213        0.13243
C         -1.41078       -4.10353        2.80374
H         -0.54287       -1.54482        2.51246
H         -0.42276       -1.26937       -1.67544
C         -1.23600       -3.76149       -2.35964
C          4.46272        0.82308       -0.77423
C          3.80114       -0.42262       -0.92000
C          2.48123       -0.51204       -0.51389
C          1.84503        0.54810        0.07644
C          2.50962        1.72296        0.31152
C          3.83481        1.87865       -0.06332
O          5.73356        1.02703       -1.37455
C          4.46581       -1.65555       -1.55177
H          1.92144       -1.41643       -0.67352
H          1.97065        2.52566        0.78482
C          4.55686        3.19328        0.27155
C         -1.93883       -3.12683        3.87937
C         -2.51016       -5.15708        2.57695
C         -0.13573       -4.77481        3.33570
C          0.09166       -4.30693       -2.90769
C         -2.30510       -4.86883       -2.35233
C         -1.74391       -2.65249       -3.31022
C         -0.13258       -6.12417        0.10463
H         -2.27932       -3.67013        4.76054
H         -1.16687       -2.43382        4.21052
H         -2.78005       -2.54836        3.49905
H         -2.78605       -5.64336        3.51230
H         -3.40361       -4.69504        2.15821
H         -2.18113       -5.93151        1.88839
H         -0.33209       -5.30139        4.26931
H          0.25841       -5.49373        2.62152
H          0.64062       -4.03326        3.52280
H          0.48666       -5.09590       -2.27192
H         -0.03741       -4.71403       -3.91016
H          0.84031       -3.51669       -2.95885
H         -3.23674       -4.49920       -1.92523
H         -2.51123       -5.22134       -3.36263
H         -1.98608       -5.72545       -1.76416
H         -0.97763       -1.90371       -3.50464
H         -2.03241       -3.07097       -4.27405
H         -2.61420       -2.14960       -2.88940
H          0.72465       -5.45659        0.20136
H         -0.12710       -6.84424        0.92280
H         -0.05997       -6.67420       -0.83338
C          5.66918        1.52188       -2.70632
C          3.88418       -2.95653       -0.95084
C          4.19774       -1.65289       -3.06457
C          5.98043       -1.67438       -1.27854
C          3.99506        3.80655        1.57451
C          6.06122        2.95875        0.50024
C          4.34537        4.19527       -0.87349
H          2.84478       -3.10665       -1.23859
H          4.44006       -3.82627       -1.30036
H          3.93929       -2.93927        0.13730
H          3.12661       -1.66490       -3.26533
H          4.61142       -0.76487       -3.53651
H          4.64111       -2.52637       -3.54189
H          6.17738       -1.63605       -0.20770
H          6.43900       -2.57957       -1.67583
H          6.47802       -0.82477       -1.73904
H          4.58812        4.66679        1.88421
H          2.97077        4.15394        1.44838
H          4.01339        3.07824        2.38491
H          6.54922        2.60141       -0.40307
H          6.56009        3.87958        0.80140
H          6.21934        2.21599        1.28144
H          3.28353        4.38641       -1.02683
H          4.75119        3.81677       -1.80852
H          4.83192        5.14569       -0.65576
H          4.63103        1.67113       -3.00606
H          6.20642        2.46795       -2.77099
H          6.14464        0.81342       -3.38436
