171
-217.83478425
P         -1.71804        0.61203       -0.19492
P          1.41410       -0.37111       -0.38808
C         -1.04618        1.52061       -1.61198
C          0.57448       -1.26945       -1.70639
C         -0.26930        0.90839       -2.59257
C          0.38885        1.71093       -3.54485
C          0.19534        3.08104       -3.52578
C         -0.61695        3.66851       -2.58057
C         -1.22137        2.88470       -1.61765
C          0.64764       -2.64114       -1.75123
C          0.01218       -3.34400       -2.75568
C         -0.71472       -2.66560       -3.70977
C         -0.82577       -1.28571       -3.67028
C         -0.16026       -0.57129       -2.65515
Cl         1.89388        1.37966        2.38525
Cl        -1.27998        0.69026        3.06466
C         -1.63497       -0.57082       -4.69663
C          1.32268        1.12763       -4.54813
H         -0.76363        4.73636       -2.57913
H         -1.83640        3.34668       -0.86395
H          1.19127       -3.17248       -0.98894
H          0.08263       -4.41868       -2.79390
H          0.69448        3.68830       -4.26210
H         -1.20897       -3.21074       -4.49586
C         -3.12280       -3.66481       -0.69788
C         -3.72758       -2.67496       -1.46441
C         -3.27062       -1.37051       -1.31880
C         -2.26653       -1.08097       -0.42797
C         -1.69299       -2.07062        0.33484
C         -2.10126       -3.39098        0.20223
H         -3.45985       -4.67998       -0.78944
H         -3.70484       -0.57169       -1.89636
H         -0.91908       -1.80695        1.03331
C         -4.74158        3.09914        2.09303
C         -5.18052        1.94547        1.45498
C         -4.24624        1.19775        0.74778
C         -2.93499        1.60049        0.68605
C         -2.52094        2.74347        1.32461
C         -3.41940        3.52018        2.04313
H         -5.44715        3.67790        2.66031
H         -4.52985        0.28606        0.25320
H         -1.47755        3.00705        1.28800
C          3.88133       -3.39996        1.96860
C          3.97902       -3.35804        0.58409
C          3.23288       -2.40137       -0.09348
C          2.39169       -1.55022        0.58300
C          2.30957       -1.61775        1.95333
C          3.05983       -2.53281        2.67657
H          4.46862       -4.12367        2.50179
H          3.28800       -2.33006       -1.16540
H          1.67466       -0.93258        2.48224
C          4.16210        2.82703       -2.04961
C          4.36408        1.50934       -2.44122
C          3.51502        0.53895       -1.92102
C          2.51245        0.88478       -1.04890
C          2.32019        2.19532       -0.68734
C          3.14468        3.19703       -1.18031
H          4.82440        3.58636       -2.42271
H          3.62419       -0.49285       -2.20215
H          1.51718        2.43578       -0.01411
Pd         0.08967        0.64159        1.28061
C         -5.24359       -4.47295       -2.44431
C         -4.89571       -2.97200       -2.41695
C         -4.52214       -2.53584       -3.84372
C         -6.13708       -2.19079       -1.95006
H         -6.06787       -4.66601       -3.13083
H         -4.39199       -5.06643       -2.77672
H         -5.54826       -4.82378       -1.45848
H         -4.31736       -1.46718       -3.88758
H         -3.63527       -3.06715       -4.18658
H         -5.33212       -2.74761       -4.54152
H         -6.40084       -2.46152       -0.92789
H         -5.95745       -1.11695       -1.97886
H         -6.99505       -2.40197       -2.58807
C         -2.57454       -5.09976        1.96887
C         -1.49070       -4.52378        1.04022
C         -0.31967       -4.02172        1.90577
C         -0.95958       -5.63214        0.11233
H         -2.97036       -4.32418        2.62434
H         -3.40582       -5.51097        1.39718
H         -2.17083       -5.89652        2.59337
H          0.11707       -4.84118        2.47612
H          0.46925       -3.59379        1.28866
H         -0.65352       -3.26477        2.61477
H         -1.75258       -6.04954       -0.50662
H         -0.18639       -5.24322       -0.54852
H         -0.52503       -6.44761        0.69029
C         -6.96743        1.22417        3.05517
C         -6.65025        1.51879        1.57790
C         -6.94458        0.25220        0.75159
C         -7.55831        2.65261        1.06609
H         -8.00117        0.90078        3.17591
H         -6.31934        0.43558        3.43713
H         -6.81895        2.10774        3.67491
H         -7.99290       -0.03298        0.83891
H         -6.73490        0.42080       -0.30416
H         -6.34483       -0.59027        1.09553
H         -8.60810        2.36413        1.11708
H         -7.43441        3.55924        1.65696
H         -7.32468        2.89391        0.02927
C         -1.48507        5.08867        2.56753
C         -2.97752        4.77857        2.80255
C         -3.19847        4.55787        4.30968
C         -3.80587        5.98448        2.32293
H         -1.27885        5.24292        1.50850
H         -1.18978        5.99434        3.09695
H         -0.85342        4.27721        2.92871
H         -4.24988        4.38022        4.53278
H         -2.63253        3.69349        4.65675
H         -2.87618        5.42652        4.88350
H         -4.86762        5.84063        2.51922
H         -3.49483        6.89753        2.83031
H         -3.68059        6.13469        1.25074
C          6.34189       -4.14589        0.29884
C          4.88466       -4.35722       -0.14970
C          4.81186       -4.17598       -1.67877
C          4.43591       -5.79125        0.18852
H          6.45459       -4.31258        1.36949
H          7.01283       -4.83164       -0.21829
H          6.66658       -3.12815        0.08271
H          3.79470       -4.31939       -2.04326
H          5.14814       -3.18223       -1.97217
H          5.44905       -4.90095       -2.18505
H          4.52239       -5.99353        1.25537
H          3.39566       -5.94580       -0.09809
H          5.04444       -6.52519       -0.33955
C          1.54601       -2.70410        4.68024
C          2.99926       -2.50566        4.21135
C          3.51500       -1.14084        4.70511
C          3.86690       -3.61504        4.83555
H          1.16273       -3.66770        4.34745
H          1.48151       -2.67652        5.76776
H          0.89116       -1.92561        4.29079
H          2.89943       -0.32593        4.32583
H          3.50412       -1.08894        5.79354
H          4.53714       -0.97078        4.36785
H          4.91558       -3.49254        4.56546
H          3.80264       -3.58989        5.92331
H          3.53729       -4.60083        4.50769
C          5.50133       -0.32702       -3.78593
C          5.52854        1.15927       -3.37925
C          6.85549        1.44553       -2.65365
C          5.44524        2.01178       -4.65981
H          6.31244       -0.55420       -4.47761
H          5.62194       -0.97272       -2.91677
H          4.56341       -0.58130       -4.27958
H          6.92760        0.85819       -1.73838
H          7.70815        1.19496       -3.28452
H          6.93659        2.49768       -2.38256
H          5.50519        3.07598       -4.43614
H          6.26201        1.77078       -5.34003
H          4.50860        1.83141       -5.18581
C          2.77536        5.53537       -2.01633
C          2.97632        4.66463       -0.76286
C          4.23856        5.12043       -0.00924
C          1.75844        4.85567        0.16435
H          2.63517        6.58174       -1.74570
H          3.63452        5.47624       -2.68328
H          1.89702        5.21121       -2.57288
H          4.14559        6.15578        0.31811
H          4.40368        4.50059        0.87187
H          5.12350        5.04716       -0.64039
H          1.87196        4.28383        1.08515
H          1.64221        5.90347        0.44058
H          0.83837        4.54002       -0.32626
H         -2.26229        0.19342       -4.23496
H          2.30822        1.58584       -4.46064
H         -2.28759       -1.25571       -5.23928
H         -0.99319       -0.08121       -5.42941
H          0.96387        1.29765       -5.56426
H          1.44826        0.05341       -4.40735
