72
-108.40261520
Cl        -1.74028        0.80828        2.70223
Cl         0.94721       -0.92587        2.74461
P          1.12877       -1.12338       -0.28666
P         -2.25320        0.11737       -0.38547
C         -3.24669       -1.48500       -0.17035
C         -3.61174       -1.65729        1.30570
C         -4.50694       -1.43545       -1.02655
C         -3.33408        1.66173       -0.11926
C         -4.14968        1.96630       -1.38242
C         -1.44187        0.43096       -2.05929
C         -1.49156       -0.72768       -3.03335
C          1.13721        0.23122       -1.50047
C         -0.02898        0.98028       -1.96950
C          0.47433        2.07980       -2.79465
C          1.92197        1.99404       -2.83007
C          2.33057        0.82640       -2.07230
C         -2.38240       -2.67024       -0.57770
H         -2.72537       -1.63374        1.93966
H         -4.29437       -0.88800        1.65607
H         -5.03430       -2.39001       -0.98794
H         -4.27408       -1.22923       -2.07024
C         -4.28863        1.50823        1.06076
H         -4.92195        2.70685       -1.16768
H         -4.64475        1.07782       -1.76986
H         -2.05225        1.23608       -2.47867
H         -0.83743       -1.53107       -2.70266
H         -1.13287       -0.42465       -4.01919
H         -2.49903       -1.12244       -3.15985
H         -0.14128        2.78410       -3.35769
H          2.58767        2.65541       -3.38949
Pd        -0.51864       -0.26776        1.16638
H          3.35221        0.49173       -1.88213
C         -2.36795        2.80581        0.15008
H         -3.53418        2.38584       -2.17733
H         -3.76451        1.19357        1.96077
H         -4.77281        2.45982        1.28497
H         -5.08130        0.79420        0.84477
H         -1.61182        2.87216       -0.63346
H         -2.89517        3.76102        0.19157
H         -1.86700        2.66640        1.10671
H         -4.10464       -2.61721        1.46816
H         -5.19913       -0.67188       -0.67558
H         -1.45377       -2.67466       -0.01000
H         -2.89545       -3.61171       -0.37401
H         -2.14399       -2.66198       -1.63804
C          2.80841       -1.22004        0.39044
C          3.27370       -2.22779        1.19828
C          4.60007       -1.92715        1.50765
C          4.89253       -0.74629        0.87154
O          3.80204       -0.30193        0.18150
H          2.71062       -3.07903        1.54311
H          5.26402       -2.50711        2.12766
H          5.84328       -0.22864        0.90360
C          0.75149       -2.72788       -1.01526
C          0.66003       -3.88455       -0.28080
C          0.36001       -4.91341       -1.17467
C          0.28174       -4.33998       -2.42013
O          0.51631       -2.99705       -2.33593
H          0.77591       -3.96910        0.78777
H          0.21669       -5.95411       -0.93394
H          0.06418       -4.86164       -3.34388
Fe         1.27046        2.15116       -0.90906
C          2.97668        2.80371        0.07114
C          2.16273        1.99534        0.95712
C          0.86353        2.62092        1.06335
C          0.86599        3.80376        0.22242
C          2.18578        3.93919       -0.36680
H          4.01749        2.60413       -0.19289
H          2.47177        1.07864        1.46234
H          0.05350        2.27180        1.70575
H          0.04733        4.51985        0.12024
H          2.51972        4.74289       -1.02644
