72
-108.40400709
Cl        -1.75105        0.86993        2.67467
Cl         0.83919       -0.92002        2.83501
P          1.09756       -1.14746       -0.27649
P         -2.22955        0.15013       -0.40840
C         -3.23914       -1.44314       -0.19381
C         -3.61310       -1.60822        1.28090
C         -4.49577       -1.38689       -1.05514
C         -3.30532        1.70202       -0.15989
C         -4.11083        2.00329       -1.43072
C         -1.40573        0.45760       -2.07852
C         -1.48259       -0.69238       -3.06126
C          1.15889        0.19088       -1.50370
C          0.02031        0.97159       -1.98516
C          0.55894        2.04190       -2.82803
C          2.00188        1.90888       -2.87604
C          2.36880        0.77080       -2.05571
C         -2.38375       -2.63697       -0.59367
H         -2.72943       -1.59851        1.91891
H         -4.28450       -0.82757        1.62777
H         -5.18291       -0.61597       -0.71060
H         -5.03149       -2.33664       -1.01353
C         -4.27037        1.56382        1.01367
H         -3.48877        2.41578       -2.22413
H         -4.88123        2.74840       -1.22534
H         -1.99475        1.28116       -2.49235
H         -0.84086       -1.50994       -2.74106
H         -1.12447       -0.38838       -4.04703
H         -2.49756       -1.06824       -3.18431
H         -0.03693        2.74759       -3.41015
H          2.68881        2.54065       -3.44303
Pd        -0.51846       -0.24596        1.17188
H          3.38004        0.41124       -1.85440
C         -2.33333        2.84150        0.10770
H         -4.60737        1.11511       -1.81676
H         -4.75124        2.51990        1.22544
H         -5.06511        0.85215        0.79776
H         -3.75610        1.25447        1.92102
H         -1.57527        2.90069       -0.67459
H         -2.85516        3.79986        0.14469
H         -1.83428        2.70258        1.06544
H         -4.12187       -2.56005        1.44198
H         -4.25789       -1.18848       -2.09905
H         -1.46285       -2.65459       -0.01360
H         -2.91045       -3.57301       -0.40008
H         -2.13103       -2.62719       -1.65067
C          2.75390       -1.25672        0.45184
C          3.16041       -2.21474        1.34716
C          4.48983       -1.94026        1.66750
C          4.84335       -0.82468        0.94986
O          3.78754       -0.39516        0.19914
H          2.55458       -3.01102        1.74672
H          5.11520       -2.49332        2.34915
H          5.81254       -0.34171        0.96728
C          0.71982       -2.74996       -1.00806
C          0.65184       -3.91516       -0.28457
C          0.34082       -4.93660       -1.18312
C          0.23244       -4.35057       -2.42035
O          0.45870       -3.00689       -2.32630
H          0.79111       -4.01158        0.77999
H          0.21037       -5.98094       -0.95094
H         -0.00018       -4.86398       -3.34505
Fe         1.32831        2.10892       -0.92639
C          2.21346        3.90051       -0.41929
C          3.00751        2.77486        0.03866
C          2.18521        1.97928        0.93002
C          0.89602        2.62336        1.05379
C          0.89927        3.78660        0.18699
H          2.54657        4.69255       -1.09370
H          4.04568        2.56505       -0.22903
H          2.49451        1.07034        1.44950
H          0.08550        2.28700        1.70190
H          0.08646        4.50835        0.08023
