58
-89.86693168
P          1.59011        0.23286        0.79097
C          1.63499        1.96211        0.30593
C          1.66401        2.96779        1.24539
C          1.68719        4.28861        0.83487
C          1.68653        4.59262       -0.51240
C          1.67028        3.58032       -1.45114
C          1.64800        2.26190       -1.03679
H          1.64643        1.45505       -1.75190
H          1.66917        2.72026        2.29433
C          3.20202       -0.53212        0.60808
C          4.32204        0.26690        0.56847
C          5.57249       -0.30775        0.42664
C          5.69059       -1.67990        0.32544
C          4.56372       -2.47723        0.36526
C          3.31467       -1.89986        0.50793
H          2.42671       -2.51103        0.52766
H          4.21201        1.33704        0.64367
C          1.00569        0.00833        2.52606
C          0.24306       -1.30046        2.71452
C         -1.25604       -1.19881        2.46492
P         -1.73575       -0.59922        0.78524
C         -3.29798       -1.34064        0.30667
C         -4.39571       -0.54445        0.07098
C         -5.59644       -1.12109       -0.30188
C         -5.68771       -2.49241       -0.43690
C         -4.58328       -3.28711       -0.20033
C         -3.38382       -2.70736        0.17362
H         -2.50901       -3.31360        0.34942
H         -4.30812        0.52477        0.17644
C         -1.81389        1.19706        0.65545
C         -1.88171        1.73576       -0.60971
C         -1.90095        3.10795       -0.77837
C         -1.85517        3.93409        0.32629
C         -1.79645        3.39097        1.59432
C         -1.77757        2.01825        1.75898
H         -1.74559        1.59155        2.74714
H         -1.90729        1.07348       -1.46125
Pd         0.09023       -0.79185       -0.63768
Cl         1.73893       -0.83644       -2.16796
Cl        -1.40493       -1.67354       -2.06894
H         -1.73424       -2.17368        2.58870
H         -1.72771       -0.53548        3.19123
H          0.67524       -2.06277        2.05230
H          0.40919       -1.68303        3.73365
H          1.90486        0.04812        3.14650
H          0.38962        0.86155        2.80981
H          1.70259        5.07939        1.56679
H          1.67450        3.81525       -2.50275
H          6.45123        0.31507        0.39257
H          4.65551       -3.54762        0.28087
H         -6.45724       -0.50042       -0.48918
H         -4.65284       -4.35672       -0.31131
H         -1.94340        3.52915       -1.76926
H         -1.76223        4.03681        2.45635
H          1.70106        5.62196       -0.83164
H          6.66374       -2.12923        0.21223
H         -6.62176       -2.94307       -0.73048
H         -1.86303        5.00426        0.19859
