105
-153.07066409
Cl        -0.02749        1.89135        3.01507
Pd        -0.59724        1.10399        0.97456
P         -1.26282        0.52137       -1.17640
N         -0.93297       -1.04147       -1.90480
C          0.08614       -1.95401       -1.61049
C          0.30830       -2.46829       -0.30475
C          1.32103       -3.42920       -0.10570
C          1.52484       -3.99750        1.27914
C          2.39374       -5.26370        1.33039
C          3.62508       -5.11965        0.43181
C          3.20506       -4.87942       -1.02575
C          2.09765       -3.86721       -1.18167
C          1.83753       -3.37506       -2.45377
C          0.85053       -2.44955       -2.66692
H          0.66564       -2.07646       -3.65916
H          2.42952       -3.72930       -3.28070
H          4.06780       -4.55384       -1.62108
H          4.23213       -4.27493        0.78087
H          2.69072       -5.49265        2.36364
H          1.97594       -3.22024        1.90652
C         -0.62695       -2.17250        0.80877
C         -0.13475       -1.58716        2.01081
C         -0.99251       -1.49897        3.11162
C         -2.28633       -1.94246        3.03510
C         -2.78428       -2.51943        1.87373
C         -4.20634       -3.02181        1.88526
C         -4.49423       -4.07345        0.80437
C         -3.94546       -3.62035       -0.55095
C         -2.43007       -3.36688       -0.48410
C         -1.95549       -2.64253        0.75529
H         -1.89328       -4.32068       -0.55014
H         -4.45703       -2.70052       -0.86031
H         -5.57141       -4.28317        0.73887
H         -4.88202       -2.16751        1.76301
H         -2.93534       -1.84838        3.88931
H         -0.63052       -1.04117        4.01547
N          1.14972       -1.03176        2.10907
P          1.57744        0.18535        0.90789
C          2.66659       -0.38551       -0.38633
C          2.50292        0.10959       -1.65533
C          3.38189       -0.26422       -2.65516
C          4.43992       -1.12053       -2.37931
C          4.59683       -1.59505       -1.08334
C          3.71460       -1.22084       -0.08553
H          3.83553       -1.57501        0.92584
H          5.41190       -2.26228       -0.86107
C          5.36096       -1.55936       -3.46346
H          3.24669        0.10387       -3.65771
H          1.68415        0.77869       -1.85595
C          2.41795        1.60488        1.61745
C          3.20334        1.46976        2.73659
C          3.85151        2.57615        3.25517
C          3.72530        3.81894        2.64849
C          2.92936        3.93229        1.51654
C          2.28270        2.82533        0.99814
H          1.66521        2.90964        0.11709
H          2.81522        4.89361        1.04546
C          4.39619        5.01649        3.22573
H          4.45897        2.48081        4.13891
H          3.31109        0.50202        3.19875
H          1.35645       -0.59698        2.99903
H         -1.20185       -0.93311       -2.87431
C         -0.52481        1.86237       -2.11251
C          0.07064        1.63263       -3.33026
C          0.67045        2.67711       -4.00942
C          0.67596        3.95816       -3.47364
C          0.04434        4.17602       -2.25671
C         -0.55497        3.13017       -1.58066
H         -1.06110        3.29461       -0.64217
H          0.02297        5.16978       -1.84306
C          1.30767        5.08653       -4.21191
H          1.14354        2.50184       -4.96058
H          0.08310        0.63543       -3.73763
C         -3.04472        0.71354       -1.22902
C         -3.62406        1.55806       -2.14602
C         -4.99994        1.69436       -2.18168
C         -5.80284        0.98975       -1.29489
C         -5.19875        0.13402       -0.38427
C         -3.82286       -0.00128       -0.35305
H         -3.34623       -0.65505        0.35776
H         -5.81339       -0.42271        0.30192
C         -7.28548        1.11836       -1.34516
H         -5.45910        2.35215       -2.89973
H         -2.99890        2.10919       -2.82990
Cl        -2.51784        2.26761        1.19459
H          2.87863       -5.82436       -1.47628
H          1.80118       -6.12501        0.99728
H          4.27412       -6.00308        0.51329
H          0.54279       -4.20019        1.72481
H         -4.18117       -4.35934       -1.32982
H         -2.12080       -2.79772       -1.36672
H         -4.43102       -3.43013        2.87902
H         -4.02500       -5.02436        1.08682
H          4.97754       -2.45289       -3.95813
H          5.47921       -0.78082       -4.21843
H          6.35130       -1.79170       -3.06935
H          5.31978        4.74249        3.73753
H          4.65044        5.73841        2.44838
H          3.74608        5.51337        3.94708
H          2.14159        4.73922       -4.82352
H          0.58563        5.57099       -4.87059
H          1.69399        5.83963       -3.52363
H         -7.71582        0.37894       -2.02196
H         -7.72666        0.96924       -0.35866
H         -7.58318        2.10821       -1.69385
