105
-153.05985611
Cl         0.31621        3.47356        1.79571
Pd        -0.15090        1.93030        0.22886
P         -0.74884        0.24005       -1.32991
N          0.08415       -1.18995       -1.96831
C          0.18046       -2.51246       -1.54672
C         -0.12671       -2.96760       -0.23594
C          0.23079       -4.28055        0.14213
C          0.13693       -4.67582        1.59907
C          0.98504       -5.90449        1.95885
C          0.74188       -7.03572        0.95556
C          1.11401       -6.59654       -0.47012
C          0.74014       -5.17207       -0.80470
C          0.94671       -4.73036       -2.10496
C          0.69541       -3.43069       -2.46132
H          0.91101       -3.09780       -3.46193
H          1.34572       -5.41877       -2.83083
H          2.19441       -6.71242       -0.61844
H          1.29746       -7.93887        1.24509
H          2.04707       -5.62913        1.94575
H          0.43622       -3.81927        2.21660
C         -0.72694       -2.08594        0.80055
C          0.09520       -1.09990        1.40524
C         -0.36716       -0.42236        2.53370
C         -1.61769       -0.68302        3.03146
C         -2.45805       -1.61326        2.42587
C         -3.82354       -1.84362        3.01734
C         -4.41789       -3.20445        2.62676
C         -4.35285       -3.39804        1.10888
C         -2.90718       -3.31517        0.58747
C         -2.02085       -2.31679        1.30008
H         -2.44756       -4.30665        0.64427
H         -4.95948       -2.62340        0.62661
H         -5.44991       -3.30342        2.99228
H         -4.48996       -1.03837        2.68644
H         -1.97164       -0.14653        3.89534
H          0.25591        0.32725        2.98601
N          1.25351       -0.73270        0.72630
P          1.81064        0.87956        0.98458
C          2.90349        1.38444       -0.33683
C          3.15048        2.72369       -0.52303
C          3.91026        3.13549       -1.60284
C          4.42369        2.20730       -2.49952
C          4.15144        0.86039       -2.29853
C          3.39142        0.44972       -1.21841
H          3.16513       -0.59347       -1.06845
H          4.52993        0.13603       -2.99937
C          5.20851        2.65001       -3.68493
H          4.09693        4.18357       -1.76288
H          2.71555        3.43847        0.15815
C          2.64060        0.91778        2.57366
C          3.42631       -0.15993        2.90643
C          4.08542       -0.18092        4.12328
C          3.96434        0.88093        5.00998
C          3.15622        1.95418        4.65954
C          2.49953        1.97114        3.44421
H          1.86362        2.79580        3.17232
H          3.04190        2.77487        5.34700
C          4.65101        0.84979        6.33105
H          4.69616       -1.02578        4.39206
H          3.50961       -0.98416        2.21501
H          1.10161       -0.83757       -0.27663
H          0.28677       -1.00370       -2.94274
C         -0.61565        1.39841       -2.70114
C         -1.71266        1.81346       -3.41703
C         -1.55444        2.71090       -4.45675
C         -0.29699        3.20158       -4.78278
C          0.79988        2.76071       -4.05539
C          0.63818        1.86282       -3.01645
H          1.48667        1.53081       -2.44146
H          1.78117        3.12776       -4.30259
C         -0.12421        4.15362       -5.91459
H         -2.41050        3.03996       -5.02067
H         -2.68997        1.44393       -3.15453
C         -2.48659       -0.16201       -1.15577
C         -3.04052       -0.99916       -2.09477
C         -4.39355       -1.28602       -2.05039
C         -5.19797       -0.73803       -1.06064
C         -4.61987        0.10638       -0.12254
C         -3.26807        0.39135       -0.16948
H         -2.82368        1.05526        0.55361
H         -5.23746        0.54723        0.64113
C         -6.65923       -1.02274       -1.02722
H         -4.83291       -1.93615       -2.78745
H         -2.40991       -1.42173       -2.86125
Cl        -1.88924        3.14364       -0.51726
H          0.64586       -7.26291       -1.20589
H          0.77859       -6.23928        2.98530
H         -0.31735       -7.32117        0.98444
H         -0.90812       -4.87101        1.85953
H         -4.81703       -4.35125        0.81939
H         -2.90701       -3.06954       -0.48144
H         -3.76543       -1.74958        4.10925
H         -3.85044       -4.00395        3.11962
H          4.56334        2.75879       -4.55783
H          5.69188        3.61071       -3.50216
H          5.98893        1.92852       -3.93082
H          4.93047        1.85407        6.65262
H          4.00155        0.42011        7.09493
H          5.56194        0.25112        6.28803
H          0.74599        4.79348       -5.76159
H          0.01308        3.61740       -6.85457
H         -0.99578        4.80114       -6.01994
H         -7.20560       -0.31466       -1.65165
H         -6.87262       -2.02839       -1.39240
H         -7.05241       -0.94902       -0.01222
