111
-148.55479461
P         -2.42494        2.15676        0.63005
P          0.09711        0.24335        0.45342
C         -1.50620        1.72953        2.13445
C         -0.39696        0.91818        2.04784
C         -3.09297        3.87717        0.76992
C         -2.76679        4.68900       -0.46404
C         -1.91084        2.21005        3.36385
H         -2.78689        2.83397        3.43039
C         -1.19548        1.88153        4.50249
H         -1.51066        2.25756        5.46213
C         -0.07984        1.07178        4.41075
H          0.47714        0.81543        5.29689
C          0.31859        0.58504        3.17869
H          1.18344       -0.05361        3.08978
Pd        -1.09932        1.45740       -1.12828
Cl        -2.60175        2.27929       -2.56862
Cl         0.34093        0.63742       -2.64337
C         -4.60294        3.64067        0.98195
C         -3.99917        1.20163        0.45022
H         -3.14245        5.71182       -0.38312
H         -1.68887        4.73582       -0.63635
H         -3.22190        4.24078       -1.34860
H         -5.16868        4.48826        0.56803
H         -4.83321        3.62858        2.05744
H         -3.91806        0.64100       -0.49076
C         -5.07267        2.30445        0.34053
C         -4.19361        0.25521        1.61541
H         -2.63063        4.33063        1.65696
H         -6.00486        1.95653        0.80883
H         -5.32050        2.47823       -0.71699
H         -4.24700        0.80826        2.55494
H         -5.11777       -0.31922        1.51633
H         -3.36353       -0.45107        1.69649
C         -1.41634       -4.05569        0.31633
C         -2.01235       -3.06967       -0.51321
C         -1.53419       -1.77303       -0.43435
C         -0.45307       -1.45935        0.34792
C          0.20379       -2.43342        1.05440
C         -0.22701       -3.75050        1.02966
O         -2.05174       -5.31187        0.49231
C         -3.14460       -3.35905       -1.51380
H         -2.01662       -0.99011       -0.99191
H          1.05941       -2.15048        1.64389
C          0.61448       -4.79969        1.77633
C          4.51044        0.87991       -0.46362
C          3.88724       -0.33641       -0.84300
C          2.54463       -0.50560       -0.54703
C          1.85058        0.44303        0.15675
C          2.47417        1.57469        0.61395
C          3.81650        1.80362        0.35915
O          5.80956        1.19448       -0.94364
C          4.62562       -1.44200       -1.61324
H          2.01019       -1.37385       -0.89141
H          1.88770        2.29049        1.16437
C          4.48336        3.06002        0.94058
C         -3.29980       -4.86326       -1.79709
C         -4.46903       -2.79783       -0.97131
C         -2.82425       -2.67595       -2.86279
C          0.42365       -4.62198        3.29161
C          0.24765       -6.23996        1.37751
C          2.10583       -4.60530        1.42743
C         -2.99054       -5.30928        1.55498
H         -4.03874       -5.04202       -2.57783
H         -2.35230       -5.29298       -2.12031
H         -3.62367       -5.40012       -0.90856
H         -4.39744       -1.72376       -0.80672
H         -5.28313       -2.97472       -1.67367
H         -4.73685       -3.26200       -0.02433
H         -2.82196       -1.59053       -2.77840
H         -1.84617       -2.98697       -3.22854
H         -3.56494       -2.93938       -3.61728
H         -0.61696       -4.76580        3.57618
H          1.02606       -5.34042        3.84695
H          0.71888       -3.62163        3.60679
H         -0.76366       -6.49034        1.68875
H          0.30528       -6.36581        0.29689
H          0.92208       -6.95988        1.84059
H          2.48013       -3.64201        1.76954
H          2.71818       -5.37591        1.89506
H          2.25620       -4.66562        0.35011
H         -3.76048       -4.56173        1.37254
H         -3.45380       -6.29345        1.62781
H         -2.49162       -5.07596        2.49417
C          5.81193        1.89348       -2.18231
C          4.44710       -1.21076       -3.12141
C          6.12201       -1.47311       -1.25237
C          4.05171       -2.83058       -1.25384
C          3.82956        3.44914        2.28628
C          5.97720        2.81700        1.22261
C          4.31348        4.22732       -0.04355
H          4.94857       -1.98733       -3.69829
H          3.39076       -1.21881       -3.38917
H          4.85609       -0.24952       -3.42353
H          6.25483       -1.58940       -0.17727
H          6.62747       -2.30145       -1.74821
H          6.62293       -0.55638       -1.55241
H          4.64450       -3.62414       -1.70823
H          4.06199       -2.98175       -0.17508
H          3.02988       -2.95142       -1.60999
H          4.38019        4.25928        2.76388
H          2.80549        3.79457        2.15309
H          3.81936        2.60182        2.97143
H          6.43330        3.68651        1.69529
H          6.10844        1.96244        1.88552
H          6.52653        2.61547        0.30640
H          3.25783        4.42493       -0.22831
H          4.78068        4.00737       -1.00045
H          4.76408        5.13833        0.34944
H          6.32704        2.84656       -2.06337
H          6.34514        1.30953       -2.93226
H          4.78996        2.07131       -2.51968
