72
-98.09650715
Fe         0.03449        2.79696        0.02491
P          1.88332       -0.07663       -0.01702
P         -1.89126       -0.06390        0.05400
C          1.42610        1.53650        0.73213
C          0.38966        1.74782        1.72813
C          0.32897        3.16992        2.01715
C          1.35962        3.83738        1.24331
C          2.02799        2.82848        0.43946
C         -1.42504        1.55664       -0.67269
C         -1.98295        2.85429       -0.32622
C         -1.29818        3.86554       -1.11381
C         -0.32521        3.19157       -1.95470
C         -0.41937        1.76563       -1.69798
C          3.21575       -0.87382        1.01620
C          4.50541       -0.68227        0.18822
C          2.88727        0.23028       -1.55331
C          4.31136        0.32699       -0.97260
C         -3.27121       -0.75833       -0.97884
C         -4.44593        0.12148       -0.51772
C         -2.92480        0.23944        1.57183
C         -4.33927        0.48894        0.99260
H         -0.26672        0.98047        2.13719
H         -0.35102        3.64877        2.72570
H          1.58322        4.90632        1.25299
H          2.84666        3.00703       -0.26042
H         -2.77240        3.03465        0.40599
H          0.17053        0.98528       -2.17433
Cl         1.57295       -3.04223       -0.36995
Cl        -1.61814       -3.03092        0.24671
Pd        -0.00736       -1.47150       -0.01762
H          2.96161       -1.93766        1.09349
C          3.30997       -0.28165        2.42010
H          2.56159        1.18406       -1.98580
C          2.77509       -0.89148       -2.58617
H          4.83518       -1.64891       -0.21929
H          5.32085       -0.35318        0.84758
H          4.49975        1.34732       -0.60749
H          5.05330        0.15411       -1.76667
H         -1.48978        4.94073       -1.08614
H          0.34149        3.66974       -2.67616
H          4.26441       -0.58106        2.87514
H          3.60522       -0.80188       -3.30057
H         -3.43286       -1.79414       -0.65868
C         -2.99875       -0.70873       -2.48253
H         -2.53202        1.13733        2.06333
C         -2.90440       -0.94305        2.53897
H         -5.40596       -0.37023       -0.73950
H         -4.44248        1.03955       -1.12367
H         -4.64373        1.53358        1.15437
H         -5.06306       -0.10821        1.56475
H         -3.95658       -0.67125       -3.01998
H         -3.18324       -1.84904        1.98505
C          2.16330       -0.70452        3.32216
H          1.20464       -0.41835        2.89420
H          2.14195       -1.78803        3.45410
H          2.22975       -0.25159        4.31395
C          1.45999       -0.91964       -3.34360
H          1.30131        0.00580       -3.90043
H          1.41794       -1.74321       -4.06013
H          0.61995       -1.04210       -2.66273
C         -2.18290       -1.89239       -2.97914
H         -2.72796       -2.82899       -2.84703
H         -1.92997       -1.80478       -4.03813
H         -1.25247       -1.99470       -2.42286
C         -1.57762       -1.15189        3.24854
H         -0.77987       -1.36557        2.53853
H         -1.28744       -0.26672        3.81746
H         -1.61637       -1.99066        3.94736
H          3.35929        0.81206        2.34010
H          2.94025       -1.84913       -2.07601
H         -2.49824        0.23811       -2.72227
H         -3.69987       -0.80544        3.28479
