111
-148.55345837
P         -2.40117        2.14594       -0.59349
P         -0.05262        0.30618        0.45787
C         -1.92358        2.21623        1.14898
C         -0.88480        1.43020        1.59601
C         -2.40638        3.84284       -1.32978
C         -1.18730        4.07390       -2.19651
C         -2.57677        3.06099        2.02284
H         -3.38023        3.68227        1.66154
C         -2.19293        3.10481        3.35216
H         -2.70351        3.76158        4.03740
C         -1.15610        2.30892        3.80087
H         -0.85826        2.34194        4.83594
C         -0.49916        1.46873        2.91940
H          0.30983        0.83838        3.25370
Pd        -1.07915        0.56244       -1.61284
Cl        -1.89866        1.12786       -3.61805
Cl         0.33361       -1.01853       -2.35701
C         -3.75152        3.89022       -2.07678
C         -4.16010        1.65314       -0.90090
H         -1.15237        3.35532       -3.01663
H         -1.19315        5.07434       -2.63532
H         -0.26482        3.96086       -1.62189
H         -3.58779        3.57692       -3.11712
H         -4.12335        4.92458       -2.13384
H         -4.12213        0.90669       -1.70579
C         -4.80319        2.95507       -1.41435
C         -4.80961        1.07099        0.33580
H         -2.41632        4.54134       -0.48268
H         -5.27447        3.47466       -0.56885
H         -5.62193        2.72761       -2.11375
H         -4.81647        1.79578        1.15119
H         -5.84512        0.78064        0.14382
H         -4.27036        0.18886        0.68624
C         -1.24715       -4.00643        1.28222
C          0.04490       -3.73741        0.76194
C          0.39709       -2.41824        0.52825
C         -0.44914       -1.39283        0.85785
C         -1.65816       -1.64267        1.45392
C         -2.06952       -2.93776        1.72223
O         -1.73776       -5.33872        1.31942
C          1.03948       -4.84852        0.39208
H          1.32805       -2.17336        0.04758
H         -2.28690       -0.80372        1.69735
C         -3.40754       -3.16229        2.44375
C          4.37026        1.34558        0.12816
C          3.45376        1.79189       -0.85732
C          2.11654        1.46911       -0.70098
C          1.69643        0.66240        0.32429
C          2.59438        0.13681        1.21689
C          3.94577        0.43083        1.12581
O          5.69942        1.84612        0.13843
C          3.87985        2.62628       -2.07546
H          1.37909        1.85119       -1.38545
H          2.22070       -0.50220        1.99792
C          4.92313       -0.20896        2.12475
C          2.49241       -4.36544        0.59722
C          0.85498       -6.08928        1.28476
C          0.84777       -5.22310       -1.08545
C         -3.71041       -1.99051        3.40576
C         -4.53737       -3.25117        1.40659
C         -3.36950       -4.44322        3.29691
C         -2.42740       -5.73139        0.13905
H          3.19737       -5.18228        0.44426
H          2.76043       -3.57683       -0.10405
H          2.63098       -3.98950        1.61030
H          0.94163       -5.82083        2.33709
H         -0.12056       -6.54492        1.13690
H          1.60774       -6.84579        1.06444
H          1.01131       -4.35671       -1.72599
H          1.54741       -6.00269       -1.38548
H         -0.16071       -5.58495       -1.27204
H         -2.87273       -1.81713        4.08078
H         -3.91285       -1.06615        2.86733
H         -4.58995       -2.20554        4.01219
H         -4.58296       -2.34305        0.80627
H         -4.38533       -4.08762        0.72877
H         -5.50375       -3.38378        1.89236
H         -4.29591       -4.56880        3.85679
H         -3.23661       -5.32779        2.67904
H         -2.54527       -4.40597        4.00840
H         -3.43497       -6.05767        0.39650
H         -2.48214       -4.89885       -0.56357
H         -1.90814       -6.56708       -0.32961
C          5.85988        3.04382        0.88826
C          3.78253        4.11984       -1.73051
C          5.31276        2.27444       -2.51455
C          2.95586        2.33579       -3.28121
C          6.31570       -0.40355        1.49689
C          5.02540        0.67998        3.37326
C          4.42850       -1.60859        2.55133
H          4.43627        4.37602       -0.90014
H          4.06450        4.73654       -2.58351
H          2.76450        4.38384       -1.44490
H          5.39907        1.20830       -2.72166
H          5.59149        2.81916       -3.41623
H          6.03685        2.52353       -1.74288
H          3.33407        2.81561       -4.18349
H          2.89340        1.26478       -3.47224
H          1.94740        2.71289       -3.11856
H          6.98525       -0.92340        2.18169
H          6.24495       -0.98955        0.58114
H          6.77626        0.54915        1.24816
H          5.70690        0.24808        4.10570
H          5.38895        1.67325        3.12027
H          4.05002        0.79457        3.84559
H          3.50911       -1.55503        3.13219
H          5.17093       -2.10882        3.17278
H          4.24956       -2.23312        1.67722
H          6.24968        3.83028        0.24221
H          4.90490        3.35931        1.31035
H          6.57542        2.87847        1.69354
