87
-129.18097119
P         -1.72739       -0.44429        0.08193
P          1.56456        0.10053       -0.12008
C         -1.42291        0.84694       -1.14603
C          1.25304       -0.90853       -1.57364
C         -0.51072        0.73990       -2.19374
C         -0.25299        1.87738       -2.98289
C         -0.93368        3.05476       -2.72356
C         -1.83366        3.14171       -1.68402
C         -2.06264        2.03682       -0.88712
C          2.02839       -2.01202       -1.83244
C          1.79295       -2.77182       -2.96139
C          0.77854       -2.41745       -3.82644
C         -0.01075       -1.30457       -3.58671
C          0.24178       -0.51914       -2.44420
Cl         1.31705        1.74600        2.67348
Cl        -1.71513        1.14520        2.89225
H         -2.34034        4.07065       -1.47999
H         -2.72316        2.10539       -0.03577
H          2.82813       -2.27235       -1.15957
H          2.39789       -3.64049       -3.16340
H         -0.73435        3.91808       -3.33560
H          0.59012       -3.01020       -4.70540
C         -0.65124       -4.73796       -0.93098
C         -1.49021       -4.03393       -1.78370
C         -1.81089       -2.71934       -1.46319
C         -1.29966       -2.13692       -0.32768
C         -0.50136       -2.85364        0.53278
C         -0.16549       -4.15833        0.22458
H         -0.38775       -5.75233       -1.17788
C         -2.00768       -4.66693       -3.02719
H         -2.45453       -2.14551       -2.10894
H         -0.16815       -2.39766        1.45158
H          0.46596       -4.72516        0.88912
C         -6.08481       -0.52360        1.37708
C         -5.75674       -0.13566        0.09288
C         -4.43137       -0.09764       -0.29852
C         -3.44707       -0.44251        0.59858
C         -3.77155       -0.84668        1.87201
C         -5.09795       -0.87868        2.28663
H         -7.11649       -0.55663        1.68340
H         -6.53230        0.13493       -0.60478
H         -4.15929        0.19280       -1.30098
H         -2.98781       -1.13193        2.55434
C         -5.44673       -1.31962        3.66459
C          4.71903       -1.71899        2.62672
C          3.68784       -2.51034        2.16153
C          2.73157       -1.97359        1.32145
C          2.81289       -0.65308        0.94553
C          3.83801        0.13695        1.41253
C          4.81217       -0.38523        2.25504
H          5.45970       -2.13202        3.29016
H          3.62475       -3.54474        2.45752
H          1.92277       -2.58219        0.95658
H          3.87658        1.17664        1.13390
C          5.89757        0.48489        2.78357
C          3.07027        4.12018       -1.62000
C          3.70848        2.95361       -1.99317
C          3.25076        1.73643       -1.52311
C          2.16681        1.69874       -0.67763
C          1.53103        2.85914       -0.30258
C          1.96780        4.08916       -0.77744
H          3.42509        5.06946       -1.98361
H          4.55959        2.99030       -2.65317
H          3.72742        0.81380       -1.81562
H          0.68232        2.81424        0.35824
C          1.28457        5.34335       -0.36010
Pd        -0.08839        0.41527        1.51566
C          0.75500        1.85221       -4.07955
C         -1.10096       -0.95839       -4.53970
H          1.37333        2.75081       -4.05798
H          1.42358        0.99549       -3.98950
H          0.26884        1.80183       -5.05451
H         -1.67060       -1.84595       -4.81871
H         -1.79961       -0.24351       -4.10330
H         -0.69527       -0.51990       -5.45219
H         -1.21041       -4.78587       -3.76214
H         -2.42362       -5.65362       -2.81842
H         -2.79505       -4.06378       -3.48143
H         -6.40054       -0.89799        3.98477
H         -5.52383       -2.40655        3.71597
H         -4.68749       -1.00107        4.38042
H          6.78531       -0.09786        3.03338
H          6.19009        1.23662        2.04896
H          5.57047        1.00509        3.68490
H          1.73037        5.74116        0.55252
H          1.35726        6.10855       -1.13422
H          0.22532        5.16678       -0.16724
