100
-131.98435431
C         -1.64737        3.76422       -1.45713
C         -2.36926        2.48746       -1.47867
C         -0.25422        3.49474       -1.53910
C         -0.04600        2.02395       -1.61157
C          1.12880        1.43990       -2.31753
C         -1.41897        1.41821       -1.58548
C         -1.81725        0.01067       -1.99904
C         -0.85370       -0.70516       -2.92212
Cl         0.99094       -0.49578        2.78736
Cl        -1.85491       -1.75842        2.33403
C          3.24807        0.41643       -3.83510
C          2.51339        1.48287       -4.31490
C          2.94201       -0.12853       -2.59648
C          1.47989        1.99125       -3.56901
C          1.89483        0.35304       -1.84679
H         -3.45317        2.37763       -1.53997
H          0.53440        4.24478       -1.63498
H          0.05599       -0.97866       -2.38857
H         -1.28325       -1.62772       -3.32010
H         -0.57294       -0.07678       -3.77086
H          4.06796        0.02077       -4.41196
H          2.75321        1.91565       -5.27266
H          3.55793       -0.92406       -2.21153
H          0.90089        2.81683       -3.94563
H         -2.10740        4.75590       -1.45242
P          1.74383       -0.30694       -0.16842
H         -2.78956        0.08397       -2.50256
P         -2.14165       -1.00987       -0.50609
H         -3.45494       -3.01676       -0.32089
C         -1.66389       -3.75348       -1.24086
C         -2.72624       -2.67239       -1.05548
C         -1.20680       -4.31386        0.10826
H         -3.18856        0.78663        0.62969
C         -4.88305       -0.04708       -0.39609
C         -3.55806       -0.20197        0.36692
H         -4.64461        0.25126       -1.43151
C         -5.69249       -1.34548       -0.44914
H          3.59576       -1.82329       -0.40462
H          2.53061        0.78209        1.85046
C          3.52718        3.26594        1.17336
C          2.69791        2.29095        0.31824
C          2.85610        0.84468        0.80705
C          4.34124        0.44821        0.74988
C          5.20845        1.41042        1.58842
C          5.01582        2.87269        1.14264
H          3.16410        3.23992        2.20825
H          3.38492        4.30208        0.83569
H          3.04363        2.34664       -0.72138
H          1.64096        2.57504        0.28313
H          4.48462       -0.58516        1.08793
H          4.67173        0.46751       -0.29535
H          4.93282        1.31517        2.64612
H          6.26813        1.12367        1.53532
H          5.40308        2.99571        0.12333
H          5.61173        3.55316        1.76728
C          2.68687       -4.30644       -1.09889
C          1.91973       -2.96865       -1.07707
C          2.55726       -1.98466       -0.09407
C          2.58266       -2.59514        1.31509
C          3.37424       -3.91706        1.32322
C          2.77950       -4.91897        0.31383
H          3.69811       -4.13743       -1.48909
H          2.21595       -5.01062       -1.79909
H          0.89267       -3.14401       -0.75024
H          1.84334       -2.53115       -2.08136
H          2.98174       -1.88028        2.04622
H          1.55347       -2.79055        1.63724
H          4.42062       -3.71511        1.06284
H          3.40063       -4.34798        2.33387
H          1.77980       -5.21944        0.64942
H          3.37016       -5.84587        0.29527
H         -0.80666       -3.28617       -1.75307
C         -2.18326       -4.88277       -2.13625
H         -3.72956       -0.73182        1.30365
C         -5.72703        1.06836        0.23143
H         -3.26465       -2.50754       -1.99073
H         -0.81350       -3.53666        0.76237
H         -0.43803       -5.07718       -0.01605
H         -2.04277       -4.77903        0.63128
H         -1.42435       -5.65168       -2.28976
H         -3.05149       -5.36269       -1.68355
H         -2.48654       -4.51115       -3.11643
H         -5.20641       -2.11585       -1.04465
H         -5.84739       -1.74489        0.55362
H         -6.67727       -1.17739       -0.88835
H         -5.96612        0.83003        1.26829
H         -5.20155        2.02409        0.22651
H         -6.66954        1.20546       -0.30092
Fe        -1.06522        2.63300        0.10472
C         -2.43897        3.05564        1.62453
C         -1.58529        4.19684        1.35320
C         -0.20713        3.80162        1.57287
C         -0.21347        2.40300        1.95309
C         -1.58618        1.94612        1.99897
H         -3.53062        3.05435        1.60967
H         -1.92662        5.20142        1.09252
H          0.66790        4.45185        1.50174
H          0.64520        1.81286        2.27276
H         -1.90562        0.95728        2.33571
Pd        -0.29524       -0.85058        0.96145
