105
-153.06702631
Cl        -0.02304        1.88461        3.08625
Pd        -0.47246        1.28108        0.95970
P         -1.11653        0.49374       -1.16149
N         -0.74056       -1.02404       -1.97243
C          0.18763       -2.00582       -1.62726
C          0.32851       -2.48444       -0.30016
C          1.29498       -3.47361       -0.02309
C          1.41926       -3.99835        1.38780
C          2.24852       -5.28496        1.52251
C          3.51854       -5.20977        0.67039
C          3.16347       -5.01756       -0.81129
C          2.09749       -3.97788       -1.05049
C          1.90400       -3.52767       -2.35034
C          0.96579       -2.57125       -2.63650
H          0.83907       -2.22131       -3.64614
H          2.51297       -3.93575       -3.13923
H          4.05886       -4.74417       -1.38429
H          4.13425       -4.36737        1.01004
H          2.49723       -5.48162        2.57497
H          1.86437       -3.21208        2.00820
C         -0.66752       -2.12646        0.73818
C         -0.23944       -1.54400        1.96242
C         -1.17001       -1.40804        2.99691
C         -2.47143       -1.80510        2.83323
C         -2.91160       -2.36537        1.64028
C         -4.35055       -2.81588        1.55727
C         -4.81628       -3.19096        0.14124
C         -3.73985       -3.99794       -0.58891
C         -2.43906       -3.18949       -0.70038
C         -2.00861       -2.52992        0.58761
H         -1.62731       -3.83386       -1.06037
H         -4.09289       -4.31195       -1.58143
H         -5.03073       -2.27868       -0.42880
H         -4.99162       -2.02792        1.97200
H         -3.17331       -1.68546        3.64119
H         -0.85508       -0.95582        3.92095
N          1.05907       -1.04420        2.14235
P          1.60991        0.18689        1.00683
C          2.61845       -0.35160       -0.36146
C          2.39885        0.20742       -1.59547
C          3.21386       -0.13760       -2.65780
C          4.26305       -1.03001       -2.48007
C          4.47585       -1.57118       -1.21852
C          3.65844       -1.22524       -0.15736
H          3.82302       -1.63205        0.82776
H          5.28270       -2.26889       -1.07314
C          5.11388       -1.43686       -3.63192
H          3.03483        0.28074       -3.63338
H          1.58375        0.89948       -1.72148
C          2.53352        1.49882        1.81323
C          3.25381        1.23965        2.95431
C          3.96642        2.25819        3.56099
C          3.96937        3.53766        3.02142
C          3.23652        3.77731        1.86681
C          2.52551        2.75777        1.26030
H          1.95908        2.93986        0.36003
H          3.22271        4.76872        1.44729
C          4.70982        4.64237        3.69136
H          4.52364        2.06502        4.46172
H          3.26123        0.24309        3.36506
H          1.21936       -0.62064        3.04713
H         -1.01425       -0.93390       -2.94278
C         -0.61553        1.86028       -2.22116
C         -0.85607        3.15523       -1.82890
C         -0.45705        4.20862       -2.62880
C          0.19269        3.97328       -3.83238
C          0.41376        2.66003       -4.22370
C          0.01055        1.60947       -3.42013
H          0.19928        0.59267       -3.72052
H          0.90559        2.46521       -5.16146
C          0.60547        5.10606       -4.70642
H         -0.64922        5.22263       -2.32218
H         -1.36200        3.33573       -0.89540
C         -2.91144        0.53752       -1.09190
C         -3.59524        0.80678       -2.25377
C         -4.97858        0.83725       -2.24833
C         -5.68547        0.59631       -1.07822
C         -4.97671        0.33578        0.08585
C         -3.59517        0.29196        0.07359
H         -3.04358        0.08189        0.97553
H         -5.51439        0.17138        1.00382
C         -7.17305        0.65566       -1.06013
H         -5.51749        1.05418       -3.15473
H         -3.04344        0.99617       -3.16131
Cl        -2.26263        2.65269        0.99892
H          2.82320       -5.96951       -1.23608
H          1.64518       -6.14210        1.19812
H          4.13907       -6.10583        0.81311
H          0.41247       -4.15782        1.79407
H         -3.54489       -4.92628       -0.03748
H         -2.55834       -2.41108       -1.46263
H         -4.48069       -3.67608        2.22486
H         -5.76461       -3.74575        0.17450
H          5.20168       -0.62999       -4.36083
H          6.12108       -1.69861       -3.30472
H          4.68869       -2.30405       -4.13911
H          4.06682        5.16320        4.40211
H          5.57583        4.26332        4.23578
H          5.06948        5.37240        2.96489
H          0.85245        5.98926       -4.11562
H          1.48517        4.84725       -5.29741
H         -0.19600        5.37535       -5.39566
H         -7.58538       -0.05119       -0.33859
H         -7.51696        1.65434       -0.78773
H         -7.58978        0.41083       -2.03810
