75
-122.80499849
P          1.90424       -0.51216       -0.15166
C          3.31486       -1.16341       -1.06886
C          4.22095       -1.95383       -0.39757
C          5.32182       -2.46247       -1.06299
C          5.51183       -2.17280       -2.39935
C          4.60705       -1.37319       -3.06805
C          3.51053       -0.86731       -2.39734
H          2.81325       -0.22074       -2.90028
H          4.75747       -1.13874       -4.10910
H          6.36885       -2.56821       -2.91983
H          6.02903       -3.08361       -0.53829
H          4.06281       -2.17123        0.64665
C          1.60910       -1.63862        1.21247
C          1.93037       -1.27013        2.49850
C          1.80165       -2.18612        3.52642
C          1.35742       -3.46537        3.25562
C          1.03854       -3.83027        1.96250
C          1.16845       -2.91244        0.93560
H          0.94127       -3.18586       -0.08306
H          0.68900       -4.82764        1.75238
H          1.25282       -4.17886        4.05659
H          2.04636       -1.90064        4.53622
H          2.28308       -0.26970        2.69059
C          2.27446        1.14808        0.43133
C          3.45328        1.78956        0.13133
C          3.63825        3.12179        0.47553
C          2.58833        3.80604        1.08711
C          1.39690        3.17840        1.37703
C          1.24242        1.81627        1.07468
O          0.04961        1.13670        1.37238
C         -1.14358        1.81008        1.05884
C         -1.28802        3.18406        1.30707
C         -2.45000        3.81919        0.92947
C         -3.48307        3.12494        0.30074
C         -3.32460        1.76802        0.05600
C         -2.17963        1.11472        0.44932
P         -1.80955       -0.62294        0.12366
C         -1.75801       -1.50881        1.69748
C         -1.36382       -0.88134        2.85704
C         -1.41090       -1.55565        4.06241
C         -1.84930       -2.86388        4.10083
C         -2.23718       -3.49658        2.93682
C         -2.19309       -2.81478        1.73414
H         -2.50698       -3.29475        0.82127
H         -2.57679       -4.51887        2.96438
H         -1.88261       -3.39350        5.03891
H         -1.09774       -1.06266        4.96800
H         -1.00180        0.13082        2.81256
C         -3.08102       -1.44996       -0.84581
C         -4.40318       -1.32456       -0.48456
C         -5.37773       -2.00068       -1.19588
C         -5.01909       -2.81060       -2.25494
C         -3.68927       -2.95432       -2.59694
C         -2.71723       -2.27745       -1.88306
H         -1.67394       -2.38752       -2.13350
H         -3.40772       -3.59203       -3.41869
H         -5.77771       -3.33644       -2.81141
H         -6.41435       -1.89942       -0.91936
H         -4.66652       -0.72168        0.36985
Pd        -0.06014        0.07095       -1.34763
Cl        -1.73096        0.35335       -2.83334
Cl         1.33016        1.27170       -2.64902
H         -4.08968        1.23197       -0.47573
C         -4.70819        3.83530       -0.15319
H         -5.58012        3.18134       -0.10936
H         -4.59607        4.17850       -1.18239
H         -4.91421        4.70503        0.47198
H         -2.55217        4.87414        1.11323
S          0.03775        4.05739        2.10159
H          2.69981        4.84958        1.32338
C          4.90078        3.82515        0.12608
H          4.22521        1.25904       -0.39901
H          5.74946        3.14011        0.14218
H          4.83701        4.25902       -0.87257
H          5.11098        4.63040        0.83114
