115
-277.93627426
P         -1.68914       -0.04757       -0.12007
P          1.83816       -0.67812        0.63070
C         -1.50957        1.72941       -0.41130
C         -2.64035        2.51160       -0.32750
H         -3.61096        2.04735       -0.24285
C         -2.51758        3.88286       -0.24631
H         -3.38054        4.49640       -0.04385
C         -1.26614        4.47656       -0.28521
C         -0.15242        3.69073       -0.53427
H          0.81383        4.17167       -0.60154
C         -0.27447        2.31736       -0.59017
H          0.60677        1.71003       -0.70657
C         -3.10745       -0.68435       -1.02773
C         -3.61965       -0.02470       -2.12109
H         -3.15377        0.88463       -2.46517
C         -4.71675       -0.53921       -2.78248
H         -5.14209       -0.03311       -3.63492
C         -5.29980       -1.71595       -2.35448
C         -4.77482       -2.37231       -1.25758
H         -5.24544       -3.28281       -0.92283
C         -3.67870       -1.85885       -0.59687
H         -3.27353       -2.36696        0.26325
C         -1.77181       -0.61125        1.61704
C         -1.13097       -1.82386        1.80502
H         -0.62467       -2.28652        0.97431
C         -0.97806       -2.37853        3.07631
C         -1.69923       -1.80612        4.11743
H         -1.63141       -2.23457        5.10346
C         -2.35956       -0.60763        3.93533
H         -2.80706       -0.11796        4.78351
C         -2.30890        0.06860        2.71678
C          1.26769       -0.21660        2.30686
C          0.57718        0.97805        2.28185
H          0.40277        1.45971        1.33789
C         -0.05486        1.48588        3.41421
C          0.21510        0.87309        4.63134
H         -0.22926        1.26538        5.53075
C          0.90837       -0.32003        4.67102
H          0.99957       -0.84478        5.60697
C          1.34276       -0.94604        3.50214
C         -2.52029        1.56492        2.74380
H         -3.39138        1.79070        3.36883
H         -2.80826        1.89379        1.74813
C         -1.26334        2.36823        3.24920
H         -1.01610        3.18816        2.56619
H         -1.47782        2.86106        4.20381
C          0.20419       -3.26368        3.37860
H          0.31625       -4.01069        2.58598
H         -0.00777       -3.85159        4.27871
C          1.53498       -2.44482        3.56134
H          2.01496       -2.70758        4.51165
H          2.26986       -2.74890        2.82006
C          2.80117       -2.18710        0.75384
C          4.01933       -2.14464        1.39965
C          2.20411       -3.39310        0.45541
C          4.58208       -3.31914        1.86459
C          2.77406       -4.56395        0.90839
C          3.92547       -4.52649        1.68016
C          2.88118        0.62933       -0.03831
C          3.23150        1.69509        0.75973
C          3.20003        0.63145       -1.37599
C          3.85317        2.79359        0.20296
H          2.97625        1.69111        1.80675
C          3.81887        1.72815       -1.93376
H          2.92332       -0.20715       -1.99290
C          4.12944        2.82516       -1.15076
H          4.06865        3.67091        0.79323
H          4.00956        1.77059       -2.99393
Pd         0.26039       -0.91436       -1.10014
Cl        -1.00526       -0.98838       -2.95760
Cl         1.88291       -2.07612       -2.14493
H          2.26345       -5.50489        0.78158
H          1.25597       -3.41656       -0.05735
H          5.46659       -3.30276        2.48206
H          4.46803       -1.19192        1.63420
C         -2.24979        6.80407       -0.04938
C         -1.06283        5.85634        0.29117
C         -0.88031        5.64879        1.82748
F         -2.43335        6.76698       -1.37769
F         -3.36022        6.38272        0.57147
F         -1.94040        8.05072        0.34034
F          0.05445        6.40661       -0.18982
F         -1.94499        4.99352        2.30898
F          0.20857        4.88715        2.00471
F         -0.73076        6.83434        2.43344
C         -6.45630       -3.75992       -3.26405
C         -6.54783       -2.22239       -3.03218
C         -7.77507       -1.82758       -2.16129
F         -7.48756       -4.15282       -4.02760
F         -5.29663       -4.00703       -3.89143
F         -6.47733       -4.39492       -2.08391
F         -6.69017       -1.64029       -4.22606
F         -7.80906       -0.48783       -2.10070
F         -8.89673       -2.29574       -2.72873
F         -7.62118       -2.33157       -0.92800
C          5.44676        3.91396       -3.01763
C          4.53689        4.13432       -1.77377
C          3.22010        4.89196       -2.11516
F          6.45608        3.11317       -2.64450
F          4.74210        3.32806       -3.99552
F          5.92420        5.09920       -3.42830
F          5.22033        4.86952       -0.89262
F          2.46166        4.11931       -2.90624
F          2.57503        5.10082       -0.95891
F          3.50825        6.05691       -2.71367
C          3.22820       -5.52365        3.80813
C          4.22943       -5.66919        2.61682
C          4.11264       -7.04291        1.89550
F          3.41884       -6.51823        4.68508
F          3.46027       -4.33689        4.38542
F          1.97464       -5.53550        3.33475
F          5.46917       -5.55786        3.09967
F          4.90341       -7.00188        0.81269
F          4.52132       -8.01182        2.72932
F          2.84251       -7.25161        1.52221
