111
-148.55338834
P         -2.64871        1.89258        0.62869
P          0.19383        0.48159        0.48757
C         -1.71951        1.55653        2.15415
C         -0.46260        0.99545        2.08370
C         -3.73745        3.37578        0.85676
C         -3.50945        4.41658       -0.21659
C         -2.26888        1.85123        3.38629
H         -3.26037        2.26927        3.44260
C         -1.55245        1.59258        4.54219
H         -1.98193        1.82371        5.50332
C         -0.29018        1.03637        4.46633
H          0.26651        0.83220        5.36612
C          0.25415        0.73154        3.23210
H          1.23039        0.27946        3.15548
Pd        -1.09427        1.61065       -1.06688
Cl        -2.55577        2.54798       -2.48438
Cl         0.45957        1.27421       -2.65332
C         -5.15573        2.76719        0.84544
C         -3.91915        0.60011        0.25138
H         -3.78091        4.02246       -1.19654
H         -4.11423        5.31014       -0.04499
H         -2.46083        4.71949       -0.26096
H         -5.86290        3.49368        0.41921
H         -5.49720        2.59308        1.87642
H         -3.61287        0.11525       -0.68600
C         -5.20505        1.42873        0.05548
C         -4.00523       -0.41686        1.36856
H         -3.49417        3.79653        1.84144
H         -6.07731        0.83117        0.35832
H         -5.34922        1.64418       -1.01359
H         -3.04450       -0.91036        1.52820
H         -4.28657        0.06474        2.30689
H         -4.74916       -1.18788        1.15418
C         -1.42317       -3.68264       -0.38752
C         -1.00650       -2.84683       -1.45479
C         -0.50941       -1.59349       -1.14622
C         -0.37011       -1.18581        0.15354
C         -0.66363       -2.03189        1.19009
C         -1.15123       -3.30614        0.95329
O         -2.15133       -4.87115       -0.65950
C         -1.13944       -3.25093       -2.93054
H         -0.23936       -0.89910       -1.92260
H         -0.52512       -1.67417        2.19530
C         -1.40854       -4.23878        2.14690
C          4.73292        0.58625        0.18187
C          4.08858       -0.49531        0.83546
C          2.70476       -0.49490        0.89269
C          1.97708        0.55911        0.40503
C          2.59901        1.65711       -0.12772
C          3.97956        1.71720       -0.22540
O          6.12366        0.51947       -0.09882
C          4.85891       -1.67595        1.44731
H          2.17036       -1.33307        1.30634
H          1.98423        2.46158       -0.49289
C          4.63105        2.97818       -0.81420
C         -0.03609       -2.57993       -3.78058
C         -0.98121       -4.77170       -3.10741
C         -2.50868       -2.79380       -3.45670
C         -0.39762       -3.95705        3.28203
C         -2.82850       -4.00159        2.68326
C         -1.23223       -5.71495        1.74713
C         -3.56142       -4.68788       -0.68782
H          0.94973       -2.77330       -3.35860
H         -0.04549       -2.96448       -4.80012
H         -0.17561       -1.50191       -3.84546
H         -1.01276       -5.04913       -4.16074
H         -0.03037       -5.10873       -2.69598
H         -1.77491       -5.31481       -2.60054
H         -3.31961       -3.25743       -2.89995
H         -2.61648       -1.71347       -3.36104
H         -2.62977       -3.05346       -4.50798
H         -0.49241       -4.69661        4.07680
H          0.62520       -3.99662        2.90813
H         -0.55950       -2.97981        3.73441
H         -2.94696       -2.97207        3.01994
H         -3.57619       -4.18718        1.91568
H         -3.04149       -4.65754        3.52693
H         -1.34816       -6.37115        2.60937
H         -1.96691       -6.01558        1.00444
H         -0.24220       -5.88212        1.32418
H         -3.81350       -3.64357       -0.49869
H         -3.94895       -4.98393       -1.66253
H         -4.02795       -5.31705        0.06998
C          6.43330       -0.08137       -1.35018
C          6.23376       -1.22818        1.97566
C          4.08589       -2.26605        2.64931
C          5.02934       -2.77562        0.38823
C          3.77505        4.22859       -0.50939
C          6.02036        3.22648       -0.19933
C          4.74394        2.82332       -2.33857
H          6.75195       -2.05131        2.46701
H          6.87181       -0.87195        1.17087
H          6.12250       -0.41881        2.69645
H          4.68557       -3.01640        3.16407
H          3.83478       -1.48716        3.36887
H          3.16422       -2.75444        2.33643
H          5.58658       -2.41231       -0.47182
H          5.56333       -3.63273        0.79771
H          4.05892       -3.12088        0.03215
H          2.82831        4.21007       -1.04710
H          3.56397        4.30335        0.55704
H          4.29582        5.13680       -0.81196
H          6.45257        4.15562       -0.56996
H          5.95309        3.29277        0.88604
H          6.71159        2.42332       -0.44177
H          3.76021        2.67544       -2.78367
H          5.35799        1.96607       -2.60354
H          5.18959        3.70946       -2.78964
H          7.06475       -0.95521       -1.19059
H          5.51934       -0.38149       -1.86434
H          6.98324        0.62661       -1.96997
