105
-153.06603260
Cl         0.28761        2.90672        2.62909
Pd        -0.17230        1.76908        0.73697
P         -0.77818        0.49675       -1.16385
N          0.35488       -0.77282       -1.61359
C          0.44932       -2.16116       -1.42182
C         -0.04522       -2.84419       -0.27734
C          0.32453       -4.18897       -0.06049
C          0.02371       -4.84494        1.26588
C          1.04043       -5.93901        1.61812
C          1.10217       -6.97053        0.48701
C          1.50731       -6.31616       -0.84712
C          1.07088       -4.87824       -1.02032
C          1.49307       -4.20460       -2.15958
C          1.21379       -2.87558       -2.34295
H          1.59241       -2.35604       -3.20635
H          2.08234       -4.73462       -2.88885
H          2.59861       -6.35250       -0.95090
H          1.78735       -7.79009        0.74510
H          2.03014       -5.48456        1.75133
H         -0.00965       -4.08393        2.05536
C         -0.73422       -2.09833        0.80450
C          0.04220       -1.20383        1.58175
C         -0.55194       -0.55086        2.65993
C         -1.87167       -0.76641        2.96105
C         -2.64888       -1.64346        2.21167
C         -4.08685       -1.85008        2.60541
C         -4.63073       -3.20765        2.13999
C         -4.38761       -3.38464        0.63864
C         -2.89146       -3.28457        0.28609
C         -2.08520       -2.31743        1.12527
H         -2.44388       -4.27853        0.36712
H         -4.94354       -2.61060        0.09891
H         -5.69799       -3.31035        2.38266
H         -4.68824       -1.04047        2.17512
H         -2.32368       -0.24403        3.78698
H          0.03361        0.14719        3.23117
N          1.36187       -0.95070        1.20507
P          1.88936        0.72056        1.07433
C          2.71283        0.97577       -0.49709
C          2.40380        2.08504       -1.24887
C          2.89174        2.19761       -2.53693
C          3.68080        1.19552       -3.08354
C          4.00615        0.09789       -2.29854
C          3.52306       -0.01193       -1.00705
H          3.74865       -0.87958       -0.40708
H          4.63160       -0.67647       -2.70909
C          4.19772        1.31328       -4.47487
H          2.64295        3.05819       -3.13428
H          1.76457        2.85097       -0.83908
C          2.86919        1.26191        2.46464
C          2.94398        0.45544        3.57414
C          3.67860        0.86580        4.67236
C          4.34452        2.08449        4.65897
C          4.24750        2.88764        3.52990
C          3.51254        2.47538        2.43277
H          3.43002        3.09716        1.55529
H          4.74675        3.84140        3.51729
C          5.11100        2.54247        5.85075
H          3.73566        0.24241        5.54823
H          2.42775       -0.49135        3.57207
H          1.63489       -1.37285        0.32492
H          1.20784       -0.27602       -1.84482
C         -0.63933        1.71962       -2.47415
C         -1.05899        3.01594       -2.29671
C         -0.91711        3.93413       -3.31910
C         -0.35371        3.55955       -4.53144
C          0.04016        2.23971       -4.70417
C         -0.10245        1.32444       -3.67677
H          0.21026        0.30103       -3.80602
H          0.46312        1.93387       -5.64579
C         -0.21429        4.54318       -5.64055
H         -1.24472        4.95039       -3.18122
H         -1.50088        3.30174       -1.35754
C         -2.43927       -0.15478       -1.32842
C         -2.64092       -1.06193       -2.34226
C         -3.91676       -1.52640       -2.61199
C         -4.99998       -1.08170       -1.86672
C         -4.77900       -0.15534       -0.85626
C         -3.50420        0.30763       -0.59352
H         -3.34056        1.06208        0.15554
H         -5.61460        0.21242       -0.28560
C         -6.37596       -1.56249       -2.17190
H         -4.07797       -2.23480       -3.40642
H         -1.79569       -1.39717       -2.92294
Cl        -2.18431        2.77157        0.68045
H          1.11760       -6.90125       -1.68964
H          0.79784       -6.41464        2.57892
H          0.11594       -7.43963        0.37870
H         -0.97601       -5.28929        1.23470
H         -4.80685       -4.33814        0.28799
H         -2.76893       -3.01134       -0.76792
H         -4.18586       -1.74770        3.69357
H         -4.12202       -4.01066        2.68816
H          3.53368        1.92105       -5.09129
H          5.18466        1.77770       -4.48379
H          4.28142        0.33338       -4.94701
H          5.94477        3.18322        5.56038
H          4.47061        3.10937        6.52780
H          5.52119        1.69666        6.40427
H          0.64892        4.31098       -6.26596
H         -1.10127        4.53921       -6.27548
H         -0.08044        5.55491       -5.25514
H         -6.81593       -0.98491       -2.98592
H         -6.36779       -2.61211       -2.46933
H         -7.02911       -1.47001       -1.30299
