58
-89.86726129
P          1.66818        0.55019        0.85191
C          3.04059        1.56742        0.30485
C          2.82795        2.90564        0.06637
C          3.87509        3.70056       -0.36527
C          5.12656        3.14760       -0.55352
C          5.33419        1.80372       -0.31230
C          4.28538        1.01139        0.11834
H          4.43020       -0.04035        0.30539
H          1.84217        3.32020        0.20914
C          2.08652       -1.19983        0.74255
C          2.19518       -2.01141        1.84974
C          2.48149       -3.35509        1.69146
C          2.66251       -3.87921        0.42690
C          2.56245       -3.06211       -0.68097
C          2.27446       -1.71986       -0.51842
H          2.18504       -1.06614       -1.37211
H          2.06073       -1.60028        2.83579
C          1.20274        1.08498        2.55729
C         -0.28587        1.01629        2.86790
C         -0.93116       -0.31975        2.51739
P         -1.57275       -0.26798        0.79643
C         -1.89116       -1.92072        0.16159
C         -3.06123       -2.19328       -0.50980
C         -3.28415       -3.45890       -1.02138
C         -2.32858       -4.44314       -0.86308
C         -1.15010       -4.16248       -0.20095
C         -0.93208       -2.89588        0.30919
H         -0.00245       -2.65640        0.79646
H         -3.79003       -1.41077       -0.64481
C         -3.07637        0.71887        0.81263
C         -3.10594        1.96691        0.23307
C         -4.26762        2.71643        0.27129
C         -5.39157        2.21296        0.89564
C         -5.35594        0.96418        1.48371
C         -4.19226        0.21677        1.44392
H         -4.14849       -0.75885        1.90229
H         -2.22378        2.34916       -0.25438
Pd        -0.03307        0.54604       -0.73323
Cl         1.49478        1.10508       -2.28115
Cl        -1.73417        0.46816       -2.20159
H         -0.22812       -1.14571        2.62496
H         -1.78896       -0.54346        3.15638
H         -0.44441        1.24680        3.93342
H         -0.81430        1.81233        2.32281
H          1.77394        0.46523        3.24990
H          1.57938        2.10333        2.68213
H          3.71191        4.74807       -0.55842
H          6.30984        1.37148       -0.46246
H          2.56319       -3.99316        2.55613
H          2.70262       -3.46791       -1.66928
H         -4.19970       -3.67350       -1.54766
H         -0.39625       -4.92431       -0.08923
H         -4.29496        3.69080       -0.18822
H         -6.23209        0.57155        1.97307
H          5.94210        3.76550       -0.89236
H          2.88366       -4.92699        0.30468
H         -2.49939       -5.42901       -1.26378
H         -6.29779        2.79578        0.92439
