111
-148.55215300
P         -1.67297        2.76878        0.08061
P         -0.53567       -0.15644        0.42817
C         -1.50549        2.06009        1.74170
C         -1.08421        0.75550        1.88857
C         -0.46771        4.15355       -0.14588
C          0.52398        3.82136       -1.24007
C         -1.77256        2.82722        2.85781
H         -2.06122        3.85849        2.73796
C         -1.64517        2.27565        4.12076
H         -1.85767        2.87329        4.99215
C         -1.24177        0.96239        4.26534
H         -1.13896        0.53334        5.24849
C         -0.95107        0.20376        3.14619
H         -0.60669       -0.81255        3.24662
Pd        -1.56598        0.94833       -1.33937
Cl        -2.89702        1.96127       -2.82672
Cl        -1.20801       -0.89717       -2.57411
C         -1.36481        5.36924       -0.45685
C         -3.26332        3.68948       -0.15223
H          0.00739        3.62387       -2.18167
H          1.22201        4.64462       -1.40913
H          1.10496        2.93031       -0.99446
H         -1.36042        5.53955       -1.54214
H         -0.93805        6.28259       -0.01583
H         -3.55958        3.51425       -1.19452
C         -2.82923        5.15568        0.02165
C         -4.35606        3.22343        0.78601
H          0.03683        4.27895        0.82114
H         -2.91742        5.43100        1.08144
H         -3.51987        5.82486       -0.51413
H         -4.55200        2.15572        0.66421
H         -4.07949        3.38789        1.82762
H         -5.28977        3.76150        0.60746
C         -0.49588       -4.65657        1.13790
C         -1.41212       -4.10685        0.20473
C         -1.42913       -2.73252        0.03311
C         -0.52699       -1.92872        0.67864
C          0.43953       -2.46784        1.48785
C          0.50088       -3.83214        1.71875
O         -0.59215       -6.02351        1.51182
C         -2.37638       -4.97498       -0.61968
H         -2.13924       -2.26872       -0.62863
H          1.15377       -1.80013        1.93886
C          1.61948       -4.39212        2.61122
C          3.60983        1.38354       -0.66622
C          2.90514        0.54661       -1.56855
C          1.65004        0.09625       -1.19903
C          1.12307        0.39338        0.02894
C          1.83607        1.12556        0.94037
C          3.10041        1.60286        0.63953
O          4.80556        2.02828       -1.08160
C          3.44961        0.17032       -2.95463
H          1.03759       -0.46209       -1.88510
H          1.38164        1.33584        1.89235
C          3.87498        2.38090        1.71410
C         -3.70225       -5.12882        0.14011
C         -2.66412       -4.31644       -1.98878
C         -1.76674       -6.35875       -0.90979
C          2.87953       -3.49958        2.53581
C          1.13440       -4.43098        4.06833
C          2.03847       -5.80099        2.15371
C         -1.47169       -6.26640        2.60240
H         -4.15790       -4.15552        0.32062
H         -4.40961       -5.73264       -0.42777
H         -3.55089       -5.60707        1.10485
H         -3.23484       -4.98797       -2.62965
H         -3.24749       -3.40315       -1.88351
H         -1.73555       -4.07077       -2.50337
H         -2.42104       -6.94899       -1.55084
H         -0.80420       -6.25620       -1.40978
H         -1.60795       -6.92276        0.00586
H          2.71287       -2.52679        2.99629
H          3.71365       -3.96291        3.06229
H          3.18274       -3.34281        1.50090
H          0.25972       -5.06788        4.17546
H          1.91210       -4.81342        4.72893
H          0.86133       -3.43286        4.41024
H          1.22109       -6.51053        2.25649
H          2.34210       -5.79005        1.10746
H          2.87406       -6.17313        2.74598
H         -0.92413       -6.74875        3.41195
H         -1.90152       -5.33021        2.96085
H         -2.27093       -6.93646        2.28626
C          4.60576        3.30845       -1.66879
C          4.98386        0.04913       -2.93531
C          2.89508       -1.20103       -3.40454
C          3.01086        1.23223       -3.97479
C          3.52668        3.87355        1.60895
C          3.49255        1.88493        3.12772
C          5.39304        2.17489        1.56355
H          5.45489        1.00025       -2.70081
H          5.30174       -0.67443       -2.18540
H          5.36335       -0.27647       -3.90353
H          3.37828       -1.53092       -4.32386
H          3.07159       -1.95960       -2.64245
H          1.82551       -1.15801       -3.60457
H          3.39609        2.21467       -3.71302
H          3.36878        0.98545       -4.97393
H          1.92392        1.30255       -4.01322
H          2.45840        4.03053        1.75578
H          4.05935        4.45289        2.36260
H          3.78755        4.27235        0.63165
H          3.60307        0.80332        3.20200
H          4.13287        2.33947        3.88335
H          2.46580        2.14357        3.38262
H          5.75679        2.57351        0.62001
H          5.64090        1.11443        1.59532
H          5.93777        2.67490        2.36400
H          5.00895        3.31352       -2.68134
H          3.54375        3.55234       -1.70004
H          5.13494        4.06439       -1.08894
