111
-148.55729159
P         -2.51850        2.27520        0.39411
P         -0.01224        0.33621        0.45946
C         -1.67041        1.94631        1.96276
C         -0.56853        1.12065        1.98211
C         -3.14524        4.01713        0.37388
C         -2.74629        4.72539       -0.90176
C         -2.12097        2.51843        3.13565
H         -2.99050        3.15474        3.11873
C         -1.45893        2.26646        4.32490
H         -1.80994        2.71374        5.24052
C         -0.34988        1.44280        4.33958
H          0.16655        1.24699        5.26487
C          0.09499        0.86539        3.16397
H          0.95830        0.21878        3.15910
Pd        -1.17155        1.38306       -1.26016
Cl        -2.59432        2.16028       -2.80302
Cl         0.24740        0.35634       -2.66530
C         -4.66857        3.83617        0.53878
C         -4.11198        1.34892        0.22904
H         -1.66153        4.72949       -1.03227
H         -3.17996        4.22545       -1.76913
H         -3.09342        5.76136       -0.91167
H         -5.19265        4.66139        0.03473
H         -4.94317        3.91672        1.60082
H         -4.01068        0.71063       -0.65881
C         -5.14902        2.46497       -0.01400
C         -4.37849        0.50647        1.45775
H         -2.70691        4.52487        1.24360
H         -6.10884        2.17888        0.44005
H         -5.34850        2.55901       -1.09164
H         -5.31166       -0.05429        1.36511
H         -3.57008       -0.20803        1.63211
H         -4.45770        1.13597        2.34591
C         -1.12205       -4.08447        0.38523
C         -0.16862       -3.60616        1.32289
C          0.15071       -2.25817        1.30177
C         -0.49694       -1.38914        0.46223
C         -1.51795       -1.82465       -0.34224
C         -1.88053       -3.16031       -0.38058
O         -1.25413       -5.47777        0.15344
C          0.51480       -4.49061        2.37973
H          0.92798       -1.87338        1.94038
H         -2.02538       -1.11257       -0.96858
C         -3.07698       -3.55587       -1.26206
C          4.46020        0.79208       -0.27211
C          3.78867       -0.38598       -0.68701
C          2.42732       -0.47966       -0.45289
C          1.75383        0.50370        0.22234
C          2.41589        1.59936        0.71138
C          3.77927        1.75325        0.51880
O          5.79989        1.02800       -0.68046
C          4.49640       -1.53531       -1.42121
H          1.86315       -1.32046       -0.81830
H          1.84637        2.34149        1.24358
C          4.49033        2.96507        1.14160
C          1.99533       -4.67984        2.01093
C          0.42071       -3.80010        3.75824
C         -0.15887       -5.86676        2.51983
C         -3.60406       -4.96366       -0.93479
C         -4.24257       -2.57071       -1.02325
C         -2.66186       -3.49118       -2.74133
C         -0.35173       -5.95647       -0.83003
H          2.10068       -5.15657        1.03806
H          2.51126       -3.72126        1.97087
H          2.50351       -5.30218        2.74705
H         -0.61804       -3.59189        4.01317
H          0.83843       -4.43410        4.53992
H          0.96658       -2.85834        3.77744
H          0.27568       -6.43528        3.34173
H         -1.22570       -5.75476        2.71009
H         -0.04204       -6.45707        1.61416
H         -2.86673       -5.72612       -1.17472
H         -3.83992       -5.04869        0.12540
H         -4.50628       -5.18756       -1.50348
H         -4.49310       -2.51963        0.03593
H         -3.99726       -1.56640       -1.36299
H         -5.13429       -2.88498       -1.56497
H         -3.49930       -3.74065       -3.39227
H         -2.31748       -2.49168       -3.00541
H         -1.85269       -4.18709       -2.95374
H          0.67391       -5.74434       -0.53189
H         -0.48000       -7.03326       -0.94228
H         -0.54679       -5.46970       -1.78414
C          5.91292        1.72507       -1.91494
C          3.81273       -2.88593       -1.10691
C          4.42103       -1.28845       -2.93556
C          5.96374       -1.66310       -0.97388
C          3.78868        3.39487        2.45035
C          5.94761        2.62705        1.50560
C          4.45056        4.14139        0.15450
H          3.74069       -3.03990       -0.03106
H          2.81084       -2.94196       -1.52985
H          4.38266       -3.71502       -1.52565
H          4.90992       -0.35610       -3.20769
H          4.90198       -2.09535       -3.48778
H          3.38361       -1.22528       -3.26334
H          6.02527       -1.79497        0.10586
H          6.44492       -2.51813       -1.44811
H          6.53733       -0.77727       -1.23431
H          2.79812        3.80586        2.26140
H          3.68563        2.54971        3.13052
H          4.36276        4.16753        2.96129
H          6.43091        3.46520        2.00700
H          5.98685        1.76522        2.17093
H          6.53349        2.39181        0.62057
H          4.95587        3.89284       -0.77562
H          4.93549        5.02150        0.57605
H          3.42167        4.40612       -0.08808
H          4.92393        1.96366       -2.30835
H          6.47675        2.64557       -1.76458
H          6.45167        1.10992       -2.63541
