105
-153.06086684
Cl         0.57187        3.73512        1.43910
Pd        -0.09520        1.97307        0.20759
P         -0.73838        0.24436       -1.29716
N          0.11070       -1.16971       -1.95088
C          0.19436       -2.49872       -1.54749
C         -0.14029       -2.97546       -0.25071
C          0.17353       -4.30771        0.09717
C          0.00417       -4.75009        1.53284
C          0.80568       -6.01071        1.88815
C          0.57797       -7.10274        0.83902
C          1.01998       -6.62701       -0.55458
C          0.68779       -5.18556       -0.85956
C          0.93715       -4.71538       -2.14186
C          0.71488       -3.40386       -2.47191
H          0.95568       -3.05173       -3.46011
H          1.34080       -5.39306       -2.87523
H          2.10344       -6.75994       -0.66008
H          1.09948       -8.02831        1.12101
H          1.87370       -5.76256        1.92879
H          0.29077       -3.92308        2.19494
C         -0.72616       -2.10272        0.80201
C          0.10082       -1.11888        1.40422
C         -0.35448       -0.44115        2.53530
C         -1.59903       -0.70421        3.04606
C         -2.44514       -1.63571        2.45076
C         -3.79624       -1.87245        3.08558
C         -4.74562       -2.78527        2.28734
C         -3.98240       -3.90803        1.57687
C         -2.92826       -3.31585        0.63196
C         -2.01195       -2.33650        1.32133
H         -2.34649       -4.11017        0.15064
H         -4.67044       -4.57163        1.03419
H         -5.28332       -2.18949        1.54013
H         -4.27169       -0.89931        3.26254
H         -1.94209       -0.17388        3.91820
H          0.27380        0.30505        2.98584
N          1.26481       -0.75971        0.73046
P          1.81807        0.85646        0.95616
C          2.92585        1.32477       -0.36718
C          3.44552        0.36229       -1.19928
C          4.21308        0.74015       -2.28612
C          4.45133        2.08268       -2.55038
C          3.92074        3.03827       -1.69370
C          3.15234        2.65881       -0.60866
H          2.68744        3.39361        0.02981
H          4.10010        4.08146       -1.89000
C          5.28425        2.48892       -3.71589
H          4.62597       -0.00748       -2.94162
H          3.23893       -0.67770       -1.00457
C          2.60165        0.96445        2.56294
C          2.49406        2.09280        3.33899
C          3.10356        2.13748        4.57807
C          3.83060        1.05095        5.04609
C          3.91866       -0.08549        4.25277
C          3.30678       -0.12642        3.01211
H          3.36258       -1.00835        2.39312
H          4.46579       -0.93958        4.61364
C          4.46559        1.08684        6.39265
H          3.01560        3.01761        5.19191
H          1.92362        2.92903        2.97210
H          1.11648       -0.86288       -0.27254
H          0.32658       -0.96930       -2.91955
C         -0.61304        1.42333       -2.65162
C         -1.72056        1.94129       -3.27896
C         -1.56288        2.85592       -4.30368
C         -0.29574        3.26141       -4.70191
C          0.81031        2.71904       -4.06212
C          0.64979        1.80434       -3.03764
H          1.50666        1.39880       -2.52464
H          1.79822        3.02102       -4.36513
C         -0.12555        4.23262       -5.81777
H         -2.42666        3.26529       -4.79905
H         -2.70354        1.63829       -2.95825
C         -2.46923       -0.19123       -1.13971
C         -3.01854       -0.97468       -2.12657
C         -4.36233       -1.30219       -2.07851
C         -5.16270       -0.84541       -1.04069
C         -4.58806       -0.05782       -0.05179
C         -3.24524        0.26614       -0.10190
H         -2.79907        0.87625        0.66643
H         -5.19807        0.30288        0.75856
C         -6.60387       -1.21616       -0.98666
H         -4.79722       -1.91876       -2.84646
H         -2.39082       -1.32892       -2.92925
Cl        -2.04013        3.00702       -0.24175
H          0.57187       -7.26088       -1.33045
H          0.54701       -6.37211        2.89354
H         -0.48800       -7.36238        0.81468
H         -1.05755       -4.92996        1.73160
H         -3.48772       -4.54049        2.32439
H         -3.42953       -2.79627       -0.19114
H         -3.63275       -2.30015        4.08207
H         -5.52514       -3.20151        2.94086
H          6.33894        2.53446       -3.44126
H          5.18052        1.78086       -4.53932
H          4.98991        3.47177       -4.08673
H          5.36187        0.46565        6.42204
H          4.75835        2.10235        6.66296
H          3.77694        0.72074        7.15531
H         -0.95866        4.93572       -5.85762
H          0.79062        4.81267       -5.69835
H         -0.07442        3.71577       -6.77703
H         -7.10932       -0.94762       -1.91532
H         -6.72253       -2.29029       -0.83683
H         -7.11618       -0.70603       -0.16983
