115
-277.92982981
P         -1.76760       -0.19291       -0.04895
P          1.88494       -0.99596        0.35347
C         -1.56403        1.56208       -0.43195
C         -2.67020        2.37380       -0.30220
H         -3.64086        1.93583       -0.12632
C         -2.51096        3.74356       -0.26906
H         -3.34591        4.38319       -0.03252
C         -1.24970        4.30371       -0.39558
C         -0.17088        3.48363       -0.68532
H          0.80252        3.94039       -0.80454
C         -0.32804        2.11214       -0.70047
H          0.52696        1.47746       -0.85957
C         -3.27505       -0.80246       -0.82510
C         -3.81749       -0.17163       -1.92070
H         -3.32958        0.69497       -2.33737
C         -4.97041       -0.66449       -2.49553
H         -5.41247       -0.17726       -3.34994
C         -5.58204       -1.79184       -1.97970
C         -5.03124       -2.41634       -0.87847
H         -5.52983       -3.28352       -0.47541
C         -3.87628       -1.92498       -0.30476
H         -3.44763       -2.40991        0.55692
C         -1.76561       -0.64796        1.72018
C         -1.24637       -1.91460        1.92445
H         -0.85274       -2.46557        1.08522
C         -1.06054       -2.42578        3.21004
C         -1.64144       -1.73226        4.26706
H         -1.55110       -2.12209        5.26722
C         -2.17508       -0.47428        4.07069
H         -2.49935        0.10059        4.92154
C         -2.13523        0.13928        2.81906
C          1.38858       -0.49822        2.04250
C          0.81512        0.75586        2.09023
H          0.62859        1.28440        1.17427
C          0.32931        1.29072        3.28069
C          0.63652        0.62404        4.46158
H          0.31194        1.03781        5.40160
C          1.19790       -0.63679        4.42516
H          1.30519       -1.19624        5.33914
C          1.46234       -1.27105        3.21160
C         -2.14904        1.65056        2.78692
H         -2.97640        2.02119        3.40198
H         -2.39021        1.97346        1.77815
C         -0.79120        2.29579        3.24379
H         -0.51219        3.12904        2.58972
H         -0.89652        2.74442        4.23752
C          0.05274       -3.40878        3.47858
H         -0.09058       -4.31752        2.88381
H         -0.01231       -3.73893        4.52096
C          1.46080       -2.78389        3.20340
H          2.20190       -3.15456        3.92021
H          1.80789       -3.13188        2.23348
C          2.95178       -2.44077        0.51505
C          2.52301       -3.67719        0.07573
C          4.02576       -2.34203        1.37660
C          3.08690       -4.82386        0.59634
C          4.58587       -3.49145        1.90113
C          4.07334       -4.73591        1.56442
C          2.80322        0.33580       -0.43991
C          2.92566        0.35050       -1.80996
C          3.27121        1.39131        0.30912
C          3.45788        1.45249       -2.44355
H          2.56839       -0.48580       -2.38717
C          3.80359        2.49483       -0.32308
H          3.18229        1.37235        1.38308
C          3.87602        2.54154       -1.70384
H          3.50125        1.51088       -3.51991
H          4.10887        3.36038        0.24330
Pd         0.05265       -1.21034       -1.12205
Cl        -1.37608       -1.39887       -2.85162
Cl         1.57879       -2.36303       -2.31279
H          5.33853       -3.42888        2.67001
H          4.34298       -1.37178        1.72724
H          2.68636       -5.79662        0.35651
H          1.69102       -3.75036       -0.60411
C         -2.18775        6.64378       -0.09425
C         -0.97710        5.69157        0.13153
C         -0.63379        5.50795        1.64326
F         -1.82688        7.89564        0.22895
F         -2.52184        6.57933       -1.39176
F         -3.22324        6.24715        0.65842
F          0.08482        6.22540       -0.47670
F         -1.63113        4.84123        2.23974
F          0.48002        4.76614        1.71718
F         -0.44394        6.70346        2.21772
C         -8.04251       -1.44731       -1.95369
C         -6.88430       -2.30212       -2.54295
C         -6.85722       -2.27496       -4.09986
F         -9.21075       -1.85933       -2.46815
F         -8.03271       -1.62312       -0.62377
F         -7.82637       -0.15506       -2.24055
F         -7.07987       -3.56844       -2.16481
F         -5.74528       -2.91193       -4.49670
F         -7.94388       -2.90626       -4.57059
F         -6.82984       -1.00494       -4.52737
C          2.88139        4.69713       -2.33296
C          4.17504        3.83485       -2.41449
C          5.41562        4.54174       -1.79546
F          1.89132        3.98474       -2.89032
F          2.58628        4.91843       -1.04503
F          3.06320        5.85066       -2.99230
F          4.43589        3.60529       -3.70418
F          6.43282        3.66738       -1.81888
F          5.71807        5.62250       -2.53161
F          5.15150        4.89504       -0.52976
C          5.73305       -5.99756        3.01029
C          4.27562       -5.92608        2.46931
C          3.20976       -5.79231        3.60423
F          5.98438       -4.93287        3.78420
F          5.88487       -7.13211        3.71078
F          6.55843       -5.99331        1.95294
F          4.02754       -7.05725        1.80446
F          3.42952       -4.66081        4.28460
F          2.00445       -5.71870        3.02118
F          3.27560       -6.85810        4.41313
