111
-148.55436326
P         -2.53923        2.07435        0.94867
P          0.11116        0.40427        0.51794
C         -1.44016        1.75680        2.35508
C         -0.26736        1.06203        2.15320
C         -3.31180        3.75388        1.03660
C         -2.70081        4.69330        0.01983
C         -1.77306        2.19140        3.62204
H         -2.70086        2.71675        3.77871
C         -0.92150        1.93578        4.68314
H         -1.18019        2.27485        5.67296
C          0.25714        1.24472        4.47627
H          0.91859        1.04396        5.30293
C          0.58351        0.80224        3.20683
H          1.49176        0.24767        3.02929
Pd        -1.32504        1.51008       -0.92982
Cl        -3.05745        2.20575       -2.16863
Cl         0.08036        0.89161       -2.57297
C         -4.80735        3.45606        0.81924
C         -4.05447        1.01302        0.94573
H         -2.84169        4.31271       -0.99292
H         -3.15847        5.68427        0.06595
H         -1.62599        4.80732        0.18019
H         -5.03726        3.57115       -0.24900
H         -5.42725        4.20365        1.33715
H         -4.16314        0.64173       -0.08220
C         -5.17706        2.01491        1.27345
C         -3.92604       -0.13658        1.92120
H         -3.13983        4.12366        2.05540
H         -5.35348        2.00622        2.35789
H         -6.12485        1.69024        0.81766
H         -3.75103        0.23164        2.93379
H         -4.83143       -0.74760        1.94096
H         -3.08703       -0.78397        1.65794
C         -1.16425       -3.95073        0.13756
C         -1.11831       -3.35086        1.42281
C         -0.71820       -2.02818        1.51640
C         -0.44983       -1.29238        0.39245
C         -0.60250       -1.83643       -0.85473
C         -0.99306       -3.15246       -1.02183
O         -1.33969       -5.35466        0.01379
C         -1.45528       -4.12398        2.70743
H         -0.59733       -1.55576        2.47506
H         -0.39282       -1.20967       -1.70384
C         -1.18316       -3.69373       -2.44672
C          4.46731        0.76457       -0.75325
C          3.82675       -0.50044       -0.76724
C          2.50209       -0.56576       -0.37222
C          1.84094        0.54353        0.08552
C          2.48305        1.74863        0.19432
C          3.81106        1.88387       -0.17847
O          5.74770        0.91726       -1.34865
C          4.52238       -1.78445       -1.24555
H          1.95799       -1.49138       -0.43690
H          1.92351        2.59066        0.56423
C          4.50353        3.24311        0.00754
C         -2.01921       -3.17321        3.78789
C         -2.53314       -5.19146        2.44500
C         -0.17905       -4.78250        3.25261
C         -1.66683       -2.57083       -3.39367
C          0.15922       -4.22994       -2.96740
C         -2.25084       -4.80175       -2.48351
C         -0.12226       -6.08990        0.00187
H         -2.86677       -2.60752        3.40276
H         -2.36148       -3.73565        4.65628
H         -1.26723       -2.46887        4.14024
H         -2.81929       -5.69482        3.36816
H         -3.42557       -4.73776        2.01513
H         -2.17895       -5.95124        1.75275
H          0.24263       -5.48028        2.53317
H          0.57974       -4.03087        3.46926
H         -0.38432       -5.33018        4.17204
H         -0.89619       -1.81900       -3.55664
H         -1.92965       -2.97496       -4.37088
H         -2.54819       -2.07451       -2.98840
H          0.91053       -3.44064       -2.97788
H          0.53381       -5.03406       -2.33840
H          0.05929       -4.61410       -3.98217
H         -3.19407       -4.43864       -2.07674
H         -2.42918       -5.14042       -3.50378
H         -1.94683       -5.66609       -1.89864
H          0.72977       -5.41792        0.11299
H         -0.12422       -6.81248        0.81781
H         -0.03329       -6.63678       -0.93660
C          5.70642        1.25985       -2.72835
C          3.93126       -3.02420       -0.53444
C          4.30789       -1.94293       -2.75854
C          6.02649       -1.75450       -0.92022
C          6.00894        3.06888        0.27904
C          4.28683        4.09877       -1.24984
C          3.91290        3.99378        1.22289
H          3.94584       -2.89455        0.54741
H          2.90475       -3.21682       -0.84322
H          4.50801       -3.91780       -0.77202
H          4.77316       -2.85738       -3.12561
H          3.24469       -1.98637       -2.99370
H          4.73276       -1.10599       -3.30718
H          6.18504       -1.60281        0.14694
H          6.50788       -2.68962       -1.20536
H          6.53123       -0.95017       -1.44940
H          6.51644        2.61832       -0.57011
H          6.48542        4.02905        0.47535
H          6.17089        2.42654        1.14398
H          3.22352        4.25267       -1.43218
H          4.75654        5.07622       -1.14320
H          4.70609        3.61869       -2.13069
H          3.93457        3.36649        2.11369
H          2.88392        4.30282        1.04557
H          4.48516        4.89658        1.43524
H          6.21112        2.21311       -2.88435
H          6.22838        0.50001       -3.30973
H          4.67329        1.33451       -3.07032
