111
-148.55670096
P         -1.55349        2.68088        1.14930
P         -0.40974       -0.20075        0.55613
C         -1.06769        1.60144        2.52708
C         -0.63975        0.31631        2.26760
C         -0.42828        4.14187        1.02070
C          0.38413        4.07971       -0.25573
C         -1.09851        2.06517        3.82675
H         -1.39647        3.08240        4.02136
C         -0.72461        1.22983        4.86532
H         -0.75259        1.59024        5.88069
C         -0.30994       -0.06199        4.60254
H         -0.01359       -0.70979        5.41105
C         -0.25699       -0.51722        3.29724
H          0.09810       -1.51014        3.06993
Pd        -1.69002        1.27212       -0.67703
Cl        -2.76697        2.93513       -1.72732
Cl        -1.68989       -0.21220       -2.36197
C         -1.39287        5.34241        1.09834
C         -3.17386        3.53711        1.41533
H          1.00859        3.18453       -0.28960
H         -0.27174        4.05165       -1.12822
H          1.03618        4.95031       -0.35800
H         -1.59253        5.69825        0.07827
H         -0.91235        6.18697        1.61491
H         -3.67296        3.53839        0.43735
C         -2.73888        4.96726        1.78247
C         -4.04182        2.84440        2.44445
H          0.22016        4.10627        1.90585
H         -2.63092        5.03725        2.87358
H         -3.52871        5.68687        1.51770
H         -4.23568        1.80661        2.16380
H         -3.56118        2.83388        3.42297
H         -5.00348        3.34976        2.55880
C         -0.68280       -4.69112       -0.14018
C         -1.87041       -3.91545       -0.11005
C         -1.76386       -2.55759        0.14532
C         -0.53800       -1.96354        0.28996
C          0.61671       -2.68988        0.15658
C          0.58144       -4.05010       -0.09946
O         -0.75937       -6.10886       -0.18012
C         -3.26002       -4.52755       -0.34725
H         -2.64109       -1.93890        0.22496
H          1.55602       -2.17198        0.24797
C          1.90315       -4.80148       -0.32416
C          3.63638        1.29362       -0.90790
C          3.27505        1.47138        0.45456
C          2.05209        0.97857        0.87709
C          1.17907        0.40405       -0.00883
C          1.46665        0.35372       -1.34669
C          2.66993        0.82719       -1.83841
O          4.97676        1.50280       -1.32224
C          4.15637        2.19208        1.48816
H          1.76973        1.03665        1.91390
H          0.71905       -0.04519       -2.01107
C          2.86098        0.84647       -3.36362
C         -4.21336       -3.48559       -0.97586
C         -3.18289       -5.71192       -1.32807
C         -3.84986       -4.98893        0.99371
C          2.96156       -3.86498       -0.95276
C          2.43519       -5.31034        1.02378
C          1.71194       -5.97839       -1.29791
C         -0.79085       -6.72332        1.10173
H         -4.45590       -2.68711       -0.27638
H         -3.76748       -3.03940       -1.86449
H         -5.15446       -3.94951       -1.27014
H         -4.17562       -6.10251       -1.55024
H         -2.72162       -5.40347       -2.26567
H         -2.59275       -6.52812       -0.91871
H         -3.93545       -4.15140        1.68563
H         -4.84258       -5.41703        0.85692
H         -3.22087       -5.74216        1.46218
H          3.85349       -4.42349       -1.23575
H          2.56984       -3.38417       -1.84876
H          3.27868       -3.08837       -0.25827
H          1.73011       -5.99207        1.49349
H          3.38008       -5.83804        0.89651
H          2.60148       -4.48051        1.71034
H          1.29342       -5.63068       -2.24181
H          2.66067       -6.47151       -1.50819
H          1.03637       -6.72566       -0.88905
H          0.06154       -7.39427        1.20668
H         -0.75789       -5.96734        1.88730
H         -1.70227       -7.31247        1.20188
C          5.76783        0.33043       -1.22313
C          3.29641        3.19503        2.28898
C          4.75613        1.15803        2.45487
C          5.28914        2.99835        0.82966
C          3.04632       -0.59287       -3.87174
C          1.60785        1.46196       -4.02627
C          4.06441        1.70305       -3.79280
H          3.91077        3.75959        2.98985
H          2.81345        3.90618        1.61986
H          2.52122        2.69538        2.86753
H          5.37065        1.64357        3.21253
H          3.97096        0.60134        2.96563
H          5.38069        0.44124        1.92492
H          4.88825        3.68961        0.08913
H          5.84249        3.57560        1.57002
H          5.99706        2.34410        0.32621
H          3.92771       -1.05472       -3.43041
H          2.18484       -1.20946       -3.61701
H          3.16349       -0.61148       -4.95489
H          1.40566        2.45269       -3.62017
H          1.74632        1.56129       -5.10243
H          0.72249        0.84828       -3.86931
H          4.99933        1.27307       -3.44128
H          3.98492        2.70951       -3.38336
H          4.12456        1.78060       -4.87810
H          5.81556       -0.00106       -0.18700
H          5.33375       -0.46549       -1.82654
H          6.77549        0.54525       -1.57948
