105
-153.06487928
Cl        -0.03569        2.02924        3.07455
Pd        -0.44978        1.32475        0.97693
P         -1.11190        0.50225       -1.13954
N         -0.72563       -1.00350       -1.97048
C          0.18720       -2.00028       -1.62983
C          0.32079       -2.48577       -0.30504
C          1.27861       -3.48357       -0.02940
C          1.39696       -4.01076        1.38112
C          2.22411       -5.29869        1.51770
C          3.49282       -5.22940        0.66301
C          3.13536       -5.03989       -0.81844
C          2.07828       -3.99132       -1.05722
C          1.89061       -3.53511       -2.35595
C          0.96139       -2.56920       -2.64012
H          0.84029       -2.21341       -3.64840
H          2.49839       -3.94444       -3.14514
H          4.03148       -4.77688       -1.39514
H          4.11160       -4.38790        0.99928
H          2.47444       -5.49276        2.57024
H          1.83997       -3.22554        2.00443
C         -0.67733       -2.12765        0.73126
C         -0.25299       -1.53754        1.95238
C         -1.18325       -1.40545        2.98742
C         -2.48012       -1.81945        2.82850
C         -2.91615       -2.39022        1.63886
C         -4.34852       -2.86157        1.56054
C         -4.81512       -3.23496        0.14430
C         -3.73317       -4.02765       -0.59350
C         -2.43943       -3.20769       -0.70436
C         -2.01421       -2.54537        0.58396
H         -1.62232       -3.84514       -1.06454
H         -4.08630       -4.33881       -1.58689
H         -5.04108       -2.32248       -0.42089
H         -4.99940       -2.08604        1.98331
H         -3.18138       -1.70571        3.63785
H         -0.87115       -0.94716        3.90944
N          1.04345       -1.03325        2.13005
P          1.60132        0.18077        0.98018
C          2.62319       -0.37491       -0.37052
C          2.43008        0.18527       -1.60844
C          3.25576       -0.17373       -2.65797
C          4.28154       -1.09011       -2.46549
C          4.48052       -1.61629       -1.19543
C          3.65232       -1.25669       -0.14731
H          3.80163       -1.65702        0.84288
H          5.28604       -2.31176       -1.03291
C          5.17403       -1.47618       -3.59264
H          3.10431        0.25349       -3.63436
H          1.62859        0.89098       -1.74644
C          2.52902        1.49342        1.78237
C          3.23066        1.24338        2.93704
C          3.94647        2.26278        3.53842
C          3.96170        3.53691        2.98675
C          3.26360        3.76267        1.80806
C          2.54945        2.74217        1.20691
H          2.00443        2.91510        0.29172
H          3.28118        4.74332        1.36413
C          4.74760        4.62970        3.62359
H          4.49886        2.07391        4.44303
H          3.22443        0.25236        3.36082
H          1.20051       -0.59960        3.03058
H         -1.00156       -0.90689       -2.93965
C         -0.61864        1.87840       -2.19240
C         -0.87752        3.17039       -1.80185
C         -0.48090        4.22903       -2.59593
C          0.17328        4.00195       -3.79866
C          0.42771        2.69208       -4.18077
C          0.02686        1.63631       -3.38289
H          0.23416        0.62220       -3.68025
H          0.94594        2.50408       -5.10562
C          0.63044        5.14142       -4.64138
H         -0.67613        5.24087       -2.28411
H         -1.39429        3.34470       -0.87334
C         -2.90769        0.52674       -1.08227
C         -3.58901        0.81449       -2.24117
C         -4.97256        0.83200       -2.24114
C         -5.68216        0.55983       -1.07949
C         -4.97597        0.28074        0.08180
C         -3.59386        0.24946        0.07435
H         -3.04226        0.02999        0.97429
H         -5.51588        0.09334        0.99400
C         -7.17023        0.60658       -1.06573
H         -5.50961        1.06373       -3.14497
H         -3.03526        1.02879       -3.14189
Cl        -2.32370        2.58314        0.97517
H          2.78491       -5.99022       -1.23854
H          1.61835       -6.15559        1.19717
H          4.11107       -6.12687        0.80679
H          0.38830       -4.16957        1.78300
H         -3.52867       -4.95764       -0.04833
H         -2.56422       -2.42970       -1.46633
H         -4.46233       -3.72778        2.22333
H         -5.75756       -3.79964        0.17838
H          4.64777       -1.42320       -4.54680
H          6.03875       -0.81348       -3.64705
H          5.53855       -2.49749       -3.47308
H          4.29868        5.60401        3.42555
H          4.79409        4.50154        4.70592
H          5.76932        4.64554        3.24179
H         -0.02923        6.00309       -4.52986
H          1.63827        5.45043       -4.36074
H          0.64351        4.86964       -5.69781
H         -7.58125        0.39304       -2.05341
H         -7.57950       -0.12846       -0.37112
H         -7.52330        1.59228       -0.75982
