59
-75.80119318
Cl         1.73527        0.05988        2.33153
P          1.61133       -0.08891       -0.87244
P         -1.58844       -0.13256       -0.76250
C          0.58282        0.24506       -2.36962
H          0.32637        1.30668       -2.39638
H          1.17742        0.02822       -3.26254
C         -0.65630       -0.60018       -2.28531
H         -0.39800       -1.66027       -2.21904
H         -1.31235       -0.47151       -3.15209
C          2.66048       -1.58483       -1.21730
H          2.64111       -1.66826       -2.31273
C          2.96021        1.15226       -0.56446
H          2.94490        1.34843        0.51466
C         -2.97311       -1.29860       -0.38347
H         -3.14558       -1.22027        0.69721
C         -2.59247        1.38906       -1.10970
H         -2.28437        1.74167       -2.10140
C          4.06584       -1.14142       -0.77954
H          4.22386       -1.41266        0.27160
H          4.83476       -1.69060       -1.34409
C          4.24322        0.39114       -0.94267
H          4.49631        0.62128       -1.98669
H          5.09398        0.75429       -0.34632
C         -4.14414       -0.66563       -1.15281
H         -4.11819       -1.02368       -2.19175
H         -5.10522       -1.01325       -0.74307
C         -4.05300        0.88523       -1.12896
H         -4.56474        1.25799       -0.23145
H         -4.59972        1.32186       -1.97784
C          2.16657       -2.89611       -0.60552
H          2.82124       -3.71069       -0.94517
H          1.18110       -3.13115       -1.02799
C          2.77065        2.45867       -1.32810
H          3.70688        3.03300       -1.29089
H          2.61600        2.22989       -2.39046
C         -2.66392       -2.74225       -0.75521
H         -3.58411       -3.33918       -0.68813
H         -2.37062       -2.78399       -1.81194
C         -2.33328        2.46127       -0.05798
H         -2.65558        2.07938        0.92015
H         -1.25230        2.61849        0.04376
C          2.09165       -2.91335        0.91319
H          3.07259       -2.78255        1.37150
H          1.68615       -3.85526        1.29022
H          1.45407       -2.11551        1.29084
C          1.62788        3.30348       -0.78884
H          1.79431        3.57238        0.25608
H          0.68374        2.76226       -0.83074
H          1.49988        4.23089       -1.35170
C         -1.58361       -3.34635        0.12711
H         -0.67797       -2.74045        0.10279
H         -1.31625       -4.35992       -0.18003
H         -1.90396       -3.39027        1.16983
C         -3.02374        3.78126       -0.36741
H         -2.82448        4.53632        0.39646
H         -2.68825        4.18550       -1.32439
H         -4.10629        3.65896       -0.43229
Cl        -1.56894        0.11315        2.38510
Pd         0.05948        0.14364        0.84192
