105
-153.07063120
Cl         0.41193        1.95347        3.06793
Pd        -0.35942        1.40265        1.02193
P         -1.18347        0.73040       -1.03205
N         -0.24282       -0.42761       -1.95638
C          0.31728       -1.67049       -1.69573
C          0.24201       -2.33117       -0.44475
C          0.95453       -3.53192       -0.24878
C          0.85917       -4.21579        1.09535
C          1.40595       -5.65185        1.12301
C          2.72108       -5.75625        0.34529
C          2.51864       -5.34164       -1.11991
C          1.71739       -4.07513       -1.28434
C          1.73724       -3.43701       -2.51728
C          1.05332       -2.26655       -2.71966
H          1.10829       -1.77010       -3.67293
H          2.31736       -3.86579       -3.31688
H          3.48938       -5.21333       -1.61590
H          3.46907       -5.10181        0.80997
H          1.53771       -5.99948        2.15739
H          1.39316       -3.60340        1.83136
C         -0.70800       -1.90995        0.61220
C         -0.22440       -1.32274        1.81450
C         -1.11787       -1.15628        2.87775
C         -2.43119       -1.53319        2.76206
C         -2.91492       -2.12930        1.60313
C         -4.35583       -2.58323        1.58742
C         -4.82252       -3.22672        0.26957
C         -3.69982       -4.02762       -0.39596
C         -2.48916       -3.12642       -0.67636
C         -2.04494       -2.33999        0.53183
H         -1.65079       -3.73003       -1.04548
H         -4.05439       -4.50742       -1.31925
H         -5.15662       -2.44440       -0.42094
H         -4.99285       -1.72460        1.83470
H         -3.10598       -1.38133        3.58744
H         -0.76586       -0.69074        3.78143
N          1.09366       -0.86399        1.94481
P          1.70334        0.21035        0.67812
C          2.91271       -0.66084       -0.32210
C          3.24403       -0.22968       -1.58417
C          4.21705       -0.90101       -2.30177
C          4.87780       -1.99107       -1.75068
C          4.54224       -2.39745       -0.46652
C          3.56487       -1.72765        0.24711
H          3.29734       -2.03495        1.24547
H          5.04585       -3.24367       -0.03180
C          5.89347       -2.73937       -2.54133
H          4.46712       -0.58342       -3.29964
H          2.74121        0.62406       -2.00547
C          2.64417        1.58360        1.35596
C          3.46031        1.38539        2.44296
C          4.19239        2.44330        2.95118
C          4.10940        3.70298        2.37269
C          3.29553        3.87554        1.26110
C          2.56529        2.81706        0.75304
H          1.93004        2.94939       -0.10845
H          3.23531        4.84491        0.79654
C          4.91070        4.83793        2.90855
H          4.83307        2.29622        3.80377
H          3.52424        0.40563        2.88850
H          1.30889       -0.40400        2.82025
H         -0.27269       -0.12555       -2.92263
C         -0.97863        2.30863       -1.86261
C         -2.02752        3.18745       -1.99144
C         -1.82178        4.41841       -2.58682
C         -0.56487        4.77594       -3.05692
C          0.48462        3.87961       -2.90542
C          0.27509        2.64840       -2.31129
H          1.08449        1.94815       -2.18988
H          1.46694        4.15301       -3.25112
C         -0.33654        6.11455       -3.66798
H         -2.63743        5.11462       -2.68201
H         -2.99864        2.91417       -1.61191
C         -2.92318        0.31596       -1.16208
C         -3.37294       -0.23978       -2.33638
C         -4.71924       -0.51631       -2.49726
C         -5.62417       -0.23130       -1.48365
C         -5.15418        0.35123       -0.31474
C         -3.80901        0.62567       -0.15786
H         -3.45035        1.11792        0.72983
H         -5.85055        0.59837        0.46827
C         -7.07635       -0.50919       -1.66011
H         -5.07514       -0.95349       -3.41442
H         -2.66815       -0.45311       -3.12424
Cl        -2.08664        2.80832        1.30635
H          2.01399       -6.14740       -1.66616
H          0.66773       -6.33038        0.67731
H          3.13549       -6.77218        0.41232
H         -0.18888       -4.21086        1.42019
H         -3.39611       -4.84788        0.26653
H         -2.72274       -2.42959       -1.48696
H         -4.49731       -3.29497        2.40969
H         -5.70447       -3.86089        0.43697
H          6.44105       -2.07300       -3.20926
H          6.62073       -3.22571       -1.88973
H          5.41831       -3.51031       -3.14960
H          5.07144        4.73362        3.98245
H          5.88712        4.88567        2.42455
H          4.40473        5.78984        2.74158
H          0.47052        6.08051       -4.40118
H         -1.23191        6.47243       -4.17817
H         -0.06809        6.84698       -2.90549
H         -7.54642       -0.76266       -0.70876
H         -7.59049        0.36197       -2.06830
H         -7.23774       -1.34569       -2.34157
