111
-148.55716267
P         -1.76862        2.79407        0.21455
P         -0.51753       -0.08911        0.53042
C         -1.59280        2.06296        1.86631
C         -1.11978        0.77404        1.99546
C         -0.71614        4.30122        0.01761
C          0.33037        4.07602       -1.05378
C         -1.91524        2.79347        2.99200
H         -2.25605        3.81043        2.88611
C         -1.78246        2.22149        4.24551
H         -2.03748        2.79002        5.12491
C         -1.31962        0.92553        4.37126
H         -1.21155        0.48236        5.34753
C         -0.97764        0.20263        3.24253
H         -0.58474       -0.79823        3.32496
Pd        -1.40522        1.06091       -1.26684
Cl        -2.23169        2.39498       -2.86857
Cl        -0.90921       -0.70352       -2.56292
C         -1.73344        5.40973       -0.32436
C         -3.44374        3.52782       -0.07129
H          0.95240        4.96242       -1.19910
H          0.98487        3.23753       -0.80566
H         -0.14318        3.84454       -2.00996
H         -1.71266        5.58143       -1.40926
H         -1.42600        6.36426        0.12864
H         -3.69113        3.31069       -1.11879
C         -3.18057        5.03396        0.10522
C         -4.49632        2.94771        0.84947
H         -0.25289        4.48215        0.99642
H         -3.33479        5.30092        1.15976
H         -3.92294        5.61994       -0.45814
H         -4.56926        1.86389        0.73336
H         -4.25847        3.14875        1.89455
H         -5.48063        3.37719        0.64955
C         -0.77223       -4.63226        0.53515
C          0.22669       -3.97892        1.30531
C          0.27026       -2.59436        1.28119
C         -0.67725       -1.86840        0.60702
C         -1.72225       -2.49150       -0.02283
C         -1.82070       -3.87299       -0.04903
O         -0.67323       -6.02368        0.27713
C          1.26322       -4.71436        2.17149
H          1.06836       -2.06460        1.77444
H         -2.45000       -1.88237       -0.53205
C         -3.05229       -4.49151       -0.73106
C          3.78300        1.17893       -0.25927
C          3.24267        0.05392       -0.93380
C          1.92598       -0.29099       -0.68099
C          1.18950        0.37824        0.25917
C          1.73605        1.40444        0.98456
C          3.04496        1.80546        0.77791
O          5.04524        1.70281       -0.64593
C          4.04203       -0.77379       -1.95167
H          1.44338       -1.07647       -1.23654
H          1.11966        1.89776        1.71479
C          3.64203        2.91111        1.66366
C          1.31797       -4.05759        3.56851
C          0.90550       -6.19538        2.38563
C          2.64849       -4.60981        1.51181
C         -4.32685       -3.76369       -0.24973
C         -2.92488       -4.32688       -2.25497
C         -3.22832       -5.98050       -0.38612
C          0.10233       -6.31327       -0.87433
H          0.33086       -4.05378        4.03000
H          1.99499       -4.60107        4.22711
H          1.67011       -3.02861        3.51866
H          0.94754       -6.75071        1.45178
H          1.59652       -6.66983        3.08202
H         -0.10263       -6.29298        2.78691
H          3.40510       -5.11288        2.11336
H          2.64929       -5.06451        0.52300
H          2.94850       -3.56848        1.39931
H         -5.22037       -4.23265       -0.66104
H         -4.40043       -3.79554        0.83694
H         -4.33834       -2.71977       -0.55836
H         -2.83232       -3.27580       -2.52671
H         -2.04619       -4.84436       -2.63465
H         -3.79901       -4.73034       -2.76524
H         -4.15655       -6.37278       -0.80093
H         -2.41203       -6.57727       -0.78599
H         -3.24995       -6.12491        0.69346
H          0.15070       -7.39350       -1.01320
H         -0.34944       -5.85723       -1.75361
H          1.11046       -5.91960       -0.75565
C          4.97430        2.68037       -1.67629
C          3.56930       -2.24616       -1.94423
C          3.82324       -0.19478       -3.35753
C          5.54208       -0.78487       -1.60637
C          2.96636        2.92211        3.05393
C          5.14584        2.67571        1.89430
C          3.41822        4.28051        1.00506
H          3.59226       -2.65467       -0.93453
H          2.55691       -2.34849       -2.33188
H          4.21447       -2.86303       -2.56931
H          4.36980       -0.76821       -4.10571
H          2.76609       -0.21562       -3.62157
H          4.15735        0.83847       -3.41472
H          6.09731       -1.42476       -2.29174
H          5.97136        0.21190       -1.66685
H          5.69954       -1.15503       -0.59383
H          1.92588        3.23854        2.99380
H          2.99881        1.93257        3.50909
H          3.47289        3.61591        3.72448
H          5.70325        2.73597        0.96265
H          5.55945        3.41977        2.57457
H          5.31846        1.68963        2.32418
H          3.86132        4.31975        0.01311
H          3.85990        5.07741        1.60282
H          2.35436        4.48985        0.90366
H          5.43703        3.60552       -1.33292
H          5.52116        2.33123       -2.55189
H          3.93559        2.87138       -1.94920
