111
-148.55172970
P         -2.66501        2.03531       -0.37134
P          0.03369        0.53815        0.42131
C         -1.96268        2.23743        1.28959
C         -0.77640        1.61610        1.61558
C         -3.31947        3.64851       -1.00392
C         -2.60223        4.08867       -2.26110
C         -2.60913        3.01770        2.22687
H         -3.53468        3.50502        1.96711
C         -2.06731        3.16737        3.49189
H         -2.57276        3.77553        4.22421
C         -0.88072        2.53863        3.81683
H         -0.45992        2.65314        4.80223
C         -0.23401        1.75835        2.87525
H          0.68863        1.25325        3.11442
Pd        -1.07965        0.84862       -1.57435
Cl        -2.43355        1.11158       -3.34467
Cl         0.55877       -0.23845       -2.65694
C         -4.82649        3.37188       -1.19665
C         -4.19999        1.00580       -0.43578
H         -1.52350        4.15553       -2.10081
H         -2.77160        3.37799       -3.07059
H         -2.95523        5.06427       -2.60357
H         -5.18677        3.91474       -2.08243
H         -5.39418        3.78363       -0.34935
H         -3.92872        0.05974       -0.92428
C         -5.13061        1.85220       -1.32812
C         -4.74817        0.75165        0.95171
H         -3.15407        4.38174       -0.20284
H         -6.17944        1.64165       -1.07203
H         -5.01314        1.54868       -2.37902
H         -5.02443        1.69058        1.43452
H         -5.64065        0.12203        0.92156
H         -4.00785        0.26147        1.58714
C         -1.14366       -3.80896        1.09712
C         -0.08255       -3.49141        0.21114
C          0.23412       -2.15709        0.02114
C         -0.39711       -1.17112        0.73115
C         -1.35980       -1.47732        1.65639
C         -1.73339       -2.79049        1.88942
O         -1.63925       -5.13823        1.16967
C          0.70092       -4.55537       -0.57322
H          0.96329       -1.86244       -0.71347
H         -1.82073       -0.66897        2.19560
C         -2.78424       -3.09245        2.96964
C          4.54936        0.99541        0.10106
C          3.70090        1.79366       -0.70782
C          2.33129        1.63208       -0.58044
C          1.80456        0.76797        0.34299
C          2.61719        0.07187        1.19961
C          3.99554        0.19623        1.13410
O          5.94706        0.96488       -0.14959
C          4.23986        2.78249       -1.75293
H          1.65209        2.16228       -1.22580
H          2.15669       -0.59065        1.91243
C          4.86396       -0.55740        2.15388
C          0.01863       -4.78820       -1.92986
C          2.15173       -4.08432       -0.82664
C          0.79253       -5.87504        0.21385
C         -4.18090       -3.12529        2.33063
C         -2.48758       -4.43395        3.66410
C         -2.77334       -2.00345        4.06680
C         -2.66889       -5.42745        0.23211
H         -0.01411       -3.86423       -2.50687
H          0.55682       -5.53310       -2.51534
H         -1.00443       -5.13399       -1.80350
H          2.74624       -4.88300       -1.26958
H          2.18961       -3.24021       -1.51346
H          2.63006       -3.78913        0.10647
H         -0.18897       -6.31462        0.37052
H          1.39998       -6.60694       -0.31796
H          1.24244       -5.70736        1.19185
H         -4.94930       -3.30918        3.08110
H         -4.40492       -2.17720        1.84339
H         -4.25341       -3.90728        1.57932
H         -2.55381       -5.26477        2.96582
H         -1.48398       -4.43290        4.08808
H         -3.19636       -4.62323        4.46988
H         -1.76843       -1.86257        4.46404
H         -3.13117       -1.04670        3.68925
H         -3.42403       -2.28283        4.89514
H         -2.33526       -6.20666       -0.45272
H         -3.54868       -5.79502        0.76016
H         -2.93005       -4.53281       -0.33460
C          6.34742       -0.04447       -1.06814
C          5.58132        3.39054       -1.30529
C          4.40710        2.05507       -3.09585
C          3.25643        3.95875       -1.94992
C          4.11999       -0.70071        3.50116
C          5.17850       -1.96174        1.61684
C          6.16968        0.20536        2.44327
H          6.35424        2.63063       -1.22291
H          5.92960        4.13835       -2.01730
H          5.47942        3.86991       -0.33227
H          3.45537        1.64311       -3.43086
H          4.77156        2.73445       -3.86587
H          5.11189        1.23132       -3.01301
H          3.01070        4.42265       -0.99503
H          3.69265        4.72411       -2.59144
H          2.33065        3.63578       -2.42374
H          3.26111       -1.36515        3.41945
H          4.77685       -1.12012        4.26292
H          3.77178        0.26883        3.85643
H          5.71198       -1.91269        0.67067
H          5.79331       -2.52081        2.32175
H          4.26031       -2.52403        1.45088
H          6.75317       -0.29516        3.21561
H          5.95505        1.21802        2.78305
H          6.79301        0.27698        1.55556
H          6.84066        0.41494       -1.92457
H          7.05781       -0.71649       -0.58699
H          5.48146       -0.61336       -1.40922
