105
-153.06610456
Cl        -0.00838        1.82852        3.07281
Pd        -0.44763        1.29692        0.92417
P         -1.13957        0.49905       -1.18018
N         -0.75782       -1.02971       -1.96841
C          0.18222       -1.99804       -1.61521
C          0.32419       -2.46911       -0.28534
C          1.29793       -3.44945       -0.00187
C          1.42183       -3.97013        1.41047
C          2.25412       -5.25430        1.54841
C          3.52907       -5.17254        0.70440
C          3.18272       -4.97995       -0.77934
C          2.10812       -3.95045       -1.02494
C          1.91472       -3.50688       -2.32709
C          0.96833       -2.56065       -2.61986
H          0.84091       -2.21655       -3.63142
H          2.53067       -3.91143       -3.11242
H          4.07957       -4.69625       -1.34499
H          4.13893       -4.32791        1.04907
H          2.49673       -5.45222        2.60206
H          1.86526       -3.18169        2.02920
C         -0.67649       -2.11152        0.74860
C         -0.25498       -1.52778        1.97436
C         -1.19272       -1.38395        3.00106
C         -2.49409       -1.77766        2.83037
C         -2.92708       -2.34322        1.63750
C         -4.36555       -2.79426        1.54850
C         -4.82283       -3.17633        0.13172
C         -3.74255       -3.98884       -0.58637
C         -2.44077       -3.18162       -0.69474
C         -2.01735       -2.51410        0.59164
H         -1.62711       -3.82828       -1.04622
H         -4.08956       -4.30910       -1.57902
H         -5.03174       -2.26671       -0.44463
H         -5.00923       -2.00466        1.95589
H         -3.20106       -1.65274        3.63309
H         -0.88265       -0.92970        3.92575
N          1.04715       -1.04255        2.16884
P          1.62839        0.19700        1.05846
C          2.60816       -0.32314       -0.33790
C          2.35640        0.24572       -1.56154
C          3.14923       -0.08374       -2.64535
C          4.20014       -0.98045       -2.50267
C          4.45679       -1.51761       -1.24774
C          3.66188       -1.18710       -0.16481
H          3.85664       -1.59608        0.81391
H          5.28131       -2.19874       -1.12454
C          5.05801       -1.33631       -3.66607
H          2.95249        0.35168       -3.60991
H          1.53551        0.93519       -1.66254
C          2.57336        1.47647        1.89073
C          3.28779        1.17871        3.02619
C          4.01864        2.17012        3.65572
C          4.03530        3.46394        3.15187
C          3.32223        3.73851        1.99261
C          2.59287        2.74607        1.36324
H          2.03680        2.95667        0.46283
H          3.34047        4.73520        1.58597
C          4.83756        4.52739        3.81742
H          4.58171        1.94372        4.54500
H          3.27871        0.17246        3.41278
H          1.20284       -0.62886        3.07901
H         -1.03524       -0.95396       -2.93898
C         -0.65304        1.84730       -2.27007
C         -0.91141        3.14943       -1.91527
C         -0.52246        4.18522       -2.74263
C          0.12550        3.92456       -3.94195
C          0.38322        2.60478       -4.28586
C         -0.01061        1.57200       -3.45498
H          0.20111        0.55020       -3.72108
H          0.89838        2.39100       -5.20682
C          0.57390        5.04008       -4.82064
H         -0.71805        5.20534       -2.45932
H         -1.41725        3.34985       -0.98614
C         -2.93373        0.53233       -1.09783
C         -3.62876        0.75821       -2.26227
C         -5.01220        0.77906       -2.24614
C         -5.70754        0.58489       -1.06050
C         -4.98781        0.35012        0.10239
C         -3.60612        0.31495        0.07982
H         -3.04557        0.13015        0.98191
H         -5.51709        0.19643        1.02705
C         -7.19631        0.58339       -1.04145
H         -5.56032        0.94967       -3.15691
H         -3.08575        0.91843       -3.18068
Cl        -2.23297        2.67222        0.92306
H          2.85533       -5.93426       -1.20894
H          1.65569       -6.11270        1.21831
H          4.15261       -6.06604        0.85003
H          0.41515       -4.13087        1.81648
H         -3.55158       -4.91365       -0.02765
H         -2.55602       -2.40795       -1.46229
H         -4.49932       -3.65133        2.21939
H         -5.77229       -3.72937        0.16164
H          4.51471       -1.22356       -4.60537
H          5.94004       -0.69585       -3.70772
H          5.39539       -2.37187       -3.60201
H          5.84672        4.56675        3.40511
H          4.37954        5.50814        3.68186
H          4.91859        4.34629        4.89010
H          0.58607        4.73592       -5.86822
H         -0.09064        5.90087       -4.73406
H          1.58054        5.36352       -4.55224
H         -7.58411       -0.42812       -1.17011
H         -7.57720        0.97240       -0.09612
H         -7.60168        1.20411       -1.84167
