64
-97.21468469
Cl        -1.51307       -1.01321       -2.72302
Cl         1.52279       -2.02530       -2.64654
P          1.94177       -0.62210        0.22629
C          2.19607       -2.28899        0.99111
C          3.69975       -0.20319       -0.19274
P         -1.26516       -0.08074        0.43446
C          1.29857        0.60158        1.42217
C         -0.12539        0.85087        1.52697
C         -0.32122        1.93246        2.48187
C          0.98925        2.37084        2.92942
C          1.99250        1.53668        2.29184
H         -1.27974        2.31732        2.83483
H          1.18453        3.16014        3.65893
Pd         0.15273       -0.95787       -1.22844
H          3.07403        1.60365        2.42480
C         -4.99376        2.21375       -0.86612
C         -4.79107        0.91130       -1.27571
C         -3.65479        0.23172       -0.87479
C         -2.72403        0.85215       -0.07267
C         -2.93185        2.14836        0.34249
C         -4.06435        2.83384       -0.05567
H         -5.87726        2.74609       -1.17888
H         -5.51414        0.42438       -1.90930
H         -3.48531       -0.78365       -1.19426
H         -2.20235        2.62773        0.97000
H         -4.21994        3.85060        0.26603
C         -2.64592       -3.91727        2.43679
C         -2.52181       -3.86455        1.06201
C         -2.10881       -2.69373        0.45375
C         -1.82195       -1.58944        1.22258
C         -1.94868       -1.63328        2.59153
C         -2.36166       -2.80352        3.20323
H         -2.96735       -4.82939        2.91267
H         -2.74600       -4.73246        0.46388
H         -2.00980       -2.63077       -0.61831
H         -1.71800       -0.75498        3.17345
H         -2.46003       -2.84516        4.27556
C          3.98441       -0.34496       -1.67298
H          3.87182        0.82941        0.13844
C          4.49354       -1.20719        0.66631
H          4.70223       -0.77168        1.65462
C          3.71068       -2.53646        0.84285
H          5.47593       -1.39239        0.20750
C          1.71958       -2.28499        2.42750
H          1.61636       -3.00630        0.39404
H          4.08018       -3.09056        1.71763
H          3.90094       -3.18874       -0.02179
H          1.86433       -3.25851        2.90184
H          2.26961       -1.54457        3.01177
H          0.65963       -2.03211        2.49355
H          5.02825       -0.11953       -1.90218
H          3.78925       -1.36670       -2.00204
H          3.36018        0.31584       -2.27590
Fe         0.83611        2.50411        0.88713
C          2.16280        3.30593       -0.44115
C          1.29221        4.34314        0.08574
C         -0.07809        3.97652       -0.22852
C         -0.05294        2.72091       -0.95681
C          1.32925        2.30685       -1.08409
H          3.25421        3.29740       -0.39237
H          1.61242        5.24655        0.60971
H         -0.96781        4.56637        0.00279
H         -0.91345        2.19799       -1.37841
H          1.67521        1.42496       -1.62404
