64
-97.20842783
Cl        -1.45851       -1.50210       -2.60408
Cl         1.73566       -1.49818       -2.83921
P          1.94734       -0.58094        0.30762
C          2.22198       -2.25300        1.05312
C          3.70971       -0.08067        0.00797
P         -1.27998       -0.16418        0.35848
C          1.20502        0.59945        1.48736
C         -0.22602        0.81828        1.49118
C         -0.51434        1.91092        2.40909
C          0.74721        2.37812        2.95562
C          1.81102        1.57281        2.38199
H         -1.49805        2.33063        2.62328
H          0.87384        3.19199        3.67267
Pd         0.25162       -0.97937       -1.24743
H          2.87930        1.67540        2.58266
C         -4.92328        2.30077       -0.83427
C         -4.16960        1.68268       -1.81199
C         -3.07625        0.91670       -1.45513
C         -2.72971        0.78388       -0.12971
C         -3.49304        1.37997        0.84855
C         -4.59146        2.14431        0.49696
H         -5.77788        2.89705       -1.10976
H         -4.43737        1.78894       -2.85048
H         -2.50552        0.39487       -2.20407
H         -3.23699        1.23160        1.88507
H         -5.18711        2.61514        1.26174
C         -2.67752       -3.99846        2.35321
C         -2.34978       -2.90058        3.12519
C         -1.92977       -1.73113        2.51685
C         -1.83896       -1.67202        1.14545
C         -2.16924       -2.76021        0.37269
C         -2.58950       -3.93045        0.97638
H         -3.00456       -4.90998        2.82641
H         -2.42003       -2.95388        4.19922
H         -1.66710       -0.86513        3.10351
H         -2.09380       -2.68311       -0.69997
H         -2.84712       -4.78564        0.37342
C          4.06107       -0.06178       -1.46310
H          3.83089        0.92019        0.44278
C          4.50633       -1.13101        0.80703
H          4.70535       -0.75789        1.82237
C          3.73836       -2.47707        0.89486
H          5.49352       -1.27659        0.34467
C          1.75252       -2.26880        2.49158
H          1.64902       -2.97199        0.45158
H          4.11097       -3.08284        1.73347
H          3.93697       -3.06927       -0.01031
H          2.29440       -1.52556        3.07987
H          0.68924       -2.03222        2.56477
H          1.91393       -3.24428        2.95647
H          5.10200        0.22800       -1.62269
H          3.92457       -1.05197       -1.90031
H          3.43053        0.63252       -2.02077
Fe         0.74347        2.48663        0.87894
C          1.10156        2.31393       -1.13632
C          2.04484        3.20907       -0.49163
C          1.30036        4.30527        0.10584
C         -0.11137        4.05051       -0.12623
C         -0.23195        2.83337       -0.90802
H          1.34985        1.43248       -1.72999
H          3.13321        3.11509       -0.51383
H          1.72351        5.15545        0.64570
H         -0.93896        4.68758        0.19447
H         -1.16264        2.39351       -1.26628
