111
-148.55596124
P         -2.58319        2.04056        0.85461
P          0.12067        0.42852        0.51257
C         -1.49782        1.78944        2.28540
C         -0.30314        1.12168        2.12211
C         -3.41985        3.69059        0.89078
C         -2.81779        4.63388       -0.12769
C         -1.86453        2.24757        3.53460
H         -2.80924        2.75023        3.66190
C         -1.02524        2.04356        4.61643
H         -1.31065        2.40101        5.59235
C          0.17506        1.37994        4.44817
H          0.82694        1.21920        5.29102
C          0.53537        0.91296        3.19686
H          1.46106        0.37859        3.05020
Pd        -1.31185        1.46550       -0.97610
Cl        -2.96167        2.13357       -2.34144
Cl         0.03883        0.85232       -2.66784
C         -4.89652        3.33129        0.63958
C         -4.05632        0.92144        0.84174
H         -2.91712        4.22969       -1.13618
H         -3.31356        5.60733       -0.11262
H         -1.75272        4.79178        0.05832
H         -5.10069        3.41473       -0.43682
H         -5.55832        4.06557        1.12361
H         -4.12427        0.52048       -0.17855
C         -5.22429        1.88707        1.11586
C         -3.91013       -0.19735        1.85018
H         -3.28999        4.08548        1.90634
H         -5.43057        1.89515        2.19502
H         -6.14620        1.51682        0.64208
H         -3.04161       -0.81971        1.62529
H         -3.77458        0.20312        2.85656
H         -4.79253       -0.84126        1.86410
C         -1.15779       -3.93191        0.20810
C         -1.06132       -3.32275        1.48607
C         -0.65677       -1.99995        1.55471
C         -0.42984       -1.27322        0.41597
C         -0.62997       -1.82644       -0.82061
C         -1.03119       -3.14211       -0.96277
O         -1.33932       -5.33659        0.10335
C         -1.35482       -4.08601        2.78695
H         -0.50373       -1.51887        2.50447
H         -0.45199       -1.20740       -1.68267
C         -1.28826       -3.68852       -2.37520
C          4.50192        0.78898       -0.67216
C          3.82025       -0.44393       -0.83260
C          2.48819       -0.50590       -0.46290
C          1.85677        0.56828        0.10687
C          2.53680        1.73156        0.35466
C          3.87440        1.86023        0.01531
O          5.79532        0.96323       -1.23243
C          4.47959       -1.69330       -1.43731
H          1.91568       -1.40042       -0.63327
H          2.00101        2.54584        0.81135
C          4.61280        3.16199        0.36475
C         -0.06710       -4.76192        3.28126
C         -1.85894       -3.12321        3.88621
C         -2.45780       -5.13834        2.57233
C          0.03006       -4.21693       -2.96112
C         -2.34921       -4.80353       -2.35721
C         -1.82684       -2.57062       -3.29833
C         -0.12367       -6.07168        0.03615
H         -0.24131       -5.30003        4.21268
H          0.31117       -5.47164        2.54955
H          0.71260       -4.02165        3.45929
H         -2.17767       -3.67763        4.76860
H         -1.08035       -2.43287        4.20727
H         -2.70979       -2.54175        3.53286
H         -2.71213       -5.63607        3.50776
H         -3.36092       -4.67263        2.17916
H         -2.14323       -5.90404        1.86741
H          0.77289       -3.42140       -3.01600
H          0.44366       -5.01342       -2.34686
H         -0.11891       -4.60894       -3.96683
H         -2.01063       -5.66534       -1.78790
H         -3.27298       -4.44612       -1.90344
H         -2.57677       -5.14442       -3.36689
H         -1.07111       -1.81337       -3.50096
H         -2.13565       -2.97828       -4.26049
H         -2.69020       -2.07983       -2.84986
H         -0.06925       -6.60633       -0.91191
H          0.73224       -5.40120        0.12437
H         -0.09629       -6.80462        0.84237
C          5.78510        1.45087       -2.56834
C          3.84756       -2.97975       -0.85602
C          4.26753       -1.68978       -2.95891
C          5.98229       -1.74407       -1.10804
C          6.10380        2.89751        0.64307
C          4.45909        4.16003       -0.79287
C          4.02308        3.79649        1.64499
H          3.86244       -2.96103        0.23340
H          2.81656       -3.10787       -1.18239
H          4.39683       -3.86232       -1.18308
H          4.71124       -2.57305       -3.41757
H          3.20448       -1.68189       -3.19895
H          4.71538       -0.81144       -3.41741
H          6.43543       -2.66047       -1.48535
H          6.51491       -0.90705       -1.55223
H          6.14023       -1.70603       -0.03074
H          6.22105        2.15681        1.43337
H          6.61282        2.52404       -0.24192
H          6.61214        3.80964        0.95466
H          3.40708        4.37490       -0.97899
H          4.96142        5.10035       -0.56729
H          4.88311        3.76507       -1.71286
H          4.00074        3.07419        2.46066
H          3.01074        4.16394        1.48399
H          4.62380        4.64673        1.96727
H          6.27328        0.73106       -3.22507
H          4.76054        1.61414       -2.90515
H          6.33893        2.38815       -2.61954
