105
-153.07138478
Cl         0.45414        1.95239        3.02084
Pd        -0.34321        1.38909        0.98453
P         -1.22858        0.73483       -1.04706
N         -0.27063       -0.42291       -1.95425
C          0.30541       -1.65718       -1.68473
C          0.24402       -2.31039       -0.42858
C          0.96484       -3.50599       -0.23086
C          0.88178       -4.18381        1.11714
C          1.43450       -5.61753        1.14788
C          2.74502       -5.72026        0.36221
C          2.53128       -5.31325       -1.10349
C          1.72349       -4.05097       -1.26857
C          1.73225       -3.41919       -2.50478
C          1.03987       -2.25413       -2.70923
H          1.08488       -1.76356       -3.66607
H          2.31017       -3.84874       -3.30557
H          3.49809       -5.18315       -1.60659
H          3.49338       -5.06070        0.81898
H          1.57427       -5.95988        2.18297
H          1.41863       -3.56575        1.84629
C         -0.70321       -1.89069        0.63119
C         -0.21805       -1.31010        1.83663
C         -1.11452       -1.13643        2.89633
C         -2.43056       -1.50203        2.77557
C         -2.91457       -2.09537        1.61537
C         -4.35845       -2.53973        1.59549
C         -4.82320       -3.18988        0.28015
C         -3.70099       -3.99750       -0.37804
C         -2.48692       -3.10123       -0.65950
C         -2.04249       -2.31261        0.54714
H         -1.64987       -3.70897       -1.02487
H         -4.05429       -4.48104       -1.29986
H         -5.15346       -2.41087       -0.41584
H         -4.99079       -1.67501        1.83334
H         -3.10720       -1.34425        3.59833
H         -0.76197       -0.67486        3.80183
N          1.10491       -0.86741        1.97686
P          1.73615        0.20954        0.72417
C          2.92348       -0.66085       -0.30169
C          3.22731       -0.22413       -1.56883
C          4.18758       -0.88966       -2.30877
C          4.85438       -1.98691       -1.77964
C          4.55996       -2.38722       -0.48348
C          3.59520       -1.72342        0.25271
H          3.35587       -2.02965        1.25857
H          5.08763       -3.22242       -0.05599
C          5.89180       -2.69835       -2.57594
H          4.42441       -0.56061       -3.30613
H          2.71471        0.63125       -1.97520
C          2.69546        1.56448        1.41038
C          3.49871        1.35312        2.50465
C          4.24304        2.39917        3.01952
C          4.19463        3.65702        2.43288
C          3.37958        3.84702        1.32505
C          2.63669        2.80047        0.81027
H          2.00535        2.94442       -0.05252
H          3.32641        4.82161        0.87068
C          4.96797        4.79357        3.00520
H          4.86402        2.24465        3.88530
H          3.54030        0.37329        2.95261
H          1.31992       -0.41631        2.85692
H         -0.30392       -0.12977       -2.92310
C         -1.02616        2.31160       -1.87953
C         -2.08317        3.17596       -2.03696
C         -1.88008        4.40538       -2.63643
C         -0.61530        4.78090       -3.07001
C          0.43871        3.89225       -2.90483
C          0.23209        2.66249       -2.30659
H          1.04670        1.97146       -2.16691
H          1.42170        4.16937       -3.24557
C         -0.40090        6.09666       -3.73360
H         -2.70484        5.08511       -2.76624
H         -3.05969        2.89098       -1.68068
C         -2.96525        0.31194       -1.18957
C         -3.40345       -0.25047       -2.36517
C         -4.74791       -0.52910       -2.53729
C         -5.66282       -0.23873       -1.53429
C         -5.20454        0.35091       -0.36418
C         -3.86104        0.62640       -0.19586
H         -3.51054        1.12324        0.69244
H         -5.90846        0.60216        0.41071
C         -7.11270       -0.51941       -1.72449
H         -5.09480       -0.97180       -3.45528
H         -2.69134       -0.46649       -3.14568
Cl        -2.11328        2.72642        1.33677
H          2.02651       -6.12368       -1.64270
H          0.69617       -6.30104        0.71002
H          3.16391       -6.73423        0.43116
H         -0.16398       -4.18143        1.44936
H         -3.40157       -4.81516        0.28960
H         -2.71648       -2.40643       -1.47287
H         -4.50881       -3.24439        2.42227
H         -5.70727       -3.82073        0.44889
H          5.64020       -2.69817       -3.63748
H          6.86532       -2.22022       -2.45971
H          5.98711       -3.73808       -2.25957
H          5.83992        4.44018        3.55729
H          5.32242        5.46255        2.21976
H          4.34951        5.37557        3.68980
H          0.61180        6.46398       -3.56158
H         -0.55159        6.01631       -4.81100
H         -1.09389        6.84755       -3.35156
H         -7.60128       -0.72911       -0.77183
H         -7.61584        0.33437       -2.18028
H         -7.26465       -1.38477       -2.37121
