105
-153.06453068
Cl         0.02490        1.85233        3.09630
Pd        -0.45464        1.29005        0.96638
P         -1.08899        0.52659       -1.16409
N         -0.62031       -0.95580       -1.99221
C          0.23879       -1.98901       -1.62186
C          0.32232       -2.48239       -0.29599
C          1.24189       -3.51092       -0.00119
C          1.31360       -4.04278        1.41095
C          2.09099       -5.35960        1.56191
C          3.38244       -5.33011        0.73984
C          3.06885       -5.12332       -0.74917
C          2.04925       -4.04322       -1.01029
C          1.90576       -3.58089       -2.31201
C          1.01652       -2.58376       -2.61436
H          0.93267       -2.22127       -3.62411
H          2.51693       -4.00970       -3.08813
H          3.98692       -4.88374       -1.30105
H          4.02026       -4.51088        1.09514
H          2.30745       -5.56715        2.61940
H          1.77312       -3.27456        2.04347
C         -0.67167       -2.08837        0.73281
C         -0.22515       -1.51736        1.95704
C         -1.13993       -1.38639        3.00582
C         -2.44119       -1.78994        2.86184
C         -2.89772       -2.34836        1.67427
C         -4.33159       -2.81892        1.62209
C         -4.65319       -3.74026        0.43540
C         -3.99201       -3.23236       -0.84806
C         -2.46704       -3.14861       -0.68217
C         -2.01743       -2.48570        0.59780
H         -2.03248       -4.15434       -0.72380
H         -4.38648       -2.23813       -1.09135
H         -5.73977       -3.83743        0.29989
H         -4.98720       -1.94186        1.59694
H         -3.12996       -1.67784        3.68209
H         -0.81112       -0.93963        3.92766
N          1.08187       -1.03650        2.12911
P          1.63368        0.20384        1.00420
C          2.62226       -0.33263       -0.37905
C          2.42338        0.26935       -1.59650
C          3.22176       -0.07983       -2.67020
C          4.23345       -1.01944       -2.52006
C          4.42539       -1.60438       -1.27477
C          3.62458       -1.25482       -0.20224
H          3.77116       -1.69810        0.76992
H          5.20147       -2.34020       -1.15146
C          5.06442       -1.42885       -3.68542
H          3.05871        0.37214       -3.63351
H          1.63594        0.99651       -1.70183
C          2.56829        1.50621        1.81287
C          3.30297        1.23284        2.94142
C          4.02345        2.24379        3.55151
C          4.00962        3.53265        3.03499
C          3.27679        3.78249        1.88249
C          2.55768        2.77063        1.27263
H          1.98537        2.96224        0.37811
H          3.27126        4.77520        1.46587
C          4.80011        4.61705        3.68048
H          4.60177        2.03680        4.43572
H          3.31713        0.23065        3.33819
H          1.25906       -0.62921        3.03825
H         -0.87980       -0.86722       -2.96672
C         -0.62856        1.92277       -2.20618
C         -0.92883        3.20410       -1.81050
C         -0.56437        4.27897       -2.59818
C          0.11189        4.07983       -3.79351
C          0.39536        2.77988       -4.18856
C          0.02610        1.70790       -3.39702
H          0.26316        0.70273       -3.70177
H          0.90872        2.61232       -5.12004
C          0.48806        5.23483       -4.65495
H         -0.80365        5.28177       -2.28785
H         -1.45111        3.35791       -0.88155
C         -2.88456        0.49878       -1.12443
C         -3.54674        0.67264       -2.31685
C         -4.93000        0.65139       -2.34781
C         -5.65876        0.45651       -1.18275
C         -4.97247        0.29422        0.01220
C         -3.59024        0.29849        0.03707
H         -3.05636        0.15898        0.96323
H         -5.52951        0.17560        0.92558
C         -7.14740        0.46209       -1.20527
H         -5.45177        0.79270       -3.27883
H         -2.97797        0.82886       -3.22040
Cl        -2.26363        2.63292        1.00352
H          2.70214       -6.06113       -1.18330
H          1.46398       -6.19315        1.22131
H          3.96635       -6.24841        0.89520
H          0.29245       -4.16556        1.79342
H         -4.25818       -3.87029       -1.70274
H         -2.03905       -2.60842       -1.53304
H         -4.56701       -3.32710        2.56610
H         -4.29201       -4.75363        0.65175
H          5.19466       -0.60249       -4.38559
H          6.05635       -1.75319       -3.36775
H          4.59622       -2.25484       -4.22263
H          4.32727        5.58911        3.53374
H          4.88981        4.45251        4.75514
H          5.80627        4.66498        3.26180
H         -0.31370        5.47288       -5.35527
H          0.68686        6.12449       -4.05572
H          1.38732        5.01836       -5.23339
H         -7.55409       -0.20192       -0.44100
H         -7.53337        1.46547       -1.02015
H         -7.52861        0.12717       -2.17106
