111
-148.55245138
P         -2.43763        2.20672        0.52904
P          0.07206        0.29222        0.50441
C         -1.42064        2.05207        2.01617
C         -0.33174        1.20821        2.00495
C         -2.60533        3.97334        0.01479
C         -1.64233        4.31613       -1.10179
C         -1.72319        2.77720        3.15063
H         -2.56453        3.45100        3.14297
C         -0.94068        2.63897        4.28387
H         -1.17678        3.20195        5.17209
C          0.14161        1.78008        4.27699
H          0.74973        1.67027        5.15980
C          0.44805        1.06408        3.13345
H          1.29092        0.39227        3.11451
Pd        -1.54683        0.81704       -1.07613
Cl        -3.02449        1.60624       -2.56529
Cl        -0.56878       -0.59938       -2.51484
C         -4.09457        4.07354       -0.36059
C         -4.22303        1.76521        0.76069
H         -1.74103        5.36025       -1.40769
H         -0.60618        4.14723       -0.79824
H         -1.83048        3.69711       -1.98048
H         -4.20486        3.83797       -1.42823
H         -4.45023        5.10911       -0.24739
H         -4.44579        1.02653       -0.02091
C         -4.95956        3.09078        0.47909
C         -4.49057        1.19133        2.13701
H         -2.39475        4.57528        0.90850
H         -5.21707        3.56207        1.43736
H         -5.92142        2.89463       -0.01806
H         -3.84226        0.33914        2.34900
H         -4.30534        1.93656        2.91178
H         -5.52801        0.86449        2.23917
C         -0.84915       -4.14007        0.98854
C         -1.86998       -3.17065        1.16636
C         -1.52715       -1.83238        1.05743
C         -0.26121       -1.45679        0.68756
C          0.68614       -2.39490        0.36978
C          0.41530       -3.74795        0.47927
O         -1.06916       -5.49059        1.36785
C         -3.33066       -3.54037        1.46747
H         -2.25141       -1.06005        1.25213
H          1.64651       -2.05522        0.02638
C          1.48997       -4.76666        0.07013
C          4.25784        1.25815       -1.03025
C          3.11680        1.66304       -1.76796
C          1.86544        1.37789       -1.24869
C          1.72281        0.65196       -0.09493
C          2.82273        0.17083        0.56756
C          4.10423        0.42435        0.10658
O          5.54913        1.71156       -1.41054
C          3.21284        2.40780       -3.10902
H          0.97704        1.71872       -1.75068
H          2.66732       -0.41250        1.45799
C          5.30464       -0.18103        0.85199
C         -4.28598       -2.57658        0.72779
C         -3.66973       -4.95983        0.97672
C         -3.57733       -3.43369        2.97958
C          2.37193       -4.19996       -1.06560
C          2.38096       -5.08028        1.28121
C          0.84946       -6.06148       -0.46251
C         -0.76681       -5.75317        2.73210
H         -4.05794       -2.54967       -0.33747
H         -5.32223       -2.89386        0.84162
H         -4.21762       -1.56220        1.11377
H         -3.44427       -5.06242       -0.08423
H         -3.09795       -5.71298        1.51255
H         -4.72624       -5.18340        1.12268
H         -2.92429       -4.10763        3.53076
H         -3.38280       -2.42109        3.33228
H         -4.60864       -3.68472        3.22612
H          3.05118       -4.96259       -1.44572
H          1.75722       -3.85443       -1.89639
H          2.98487       -3.36735       -0.72512
H          3.17326       -5.77859        1.01271
H          2.84595       -4.17218        1.66404
H          1.80271       -5.52347        2.08898
H          1.60904       -6.75798       -0.81656
H          0.27546       -6.56603        0.31109
H          0.17575       -5.84352       -1.29050
H         -0.09895       -6.61234        2.79645
H         -0.28792       -4.88581        3.18822
H         -1.68193       -5.98575        3.27602
C          5.92532        2.95118       -0.82402
C          4.47265        1.98760       -3.88757
C          1.99802        2.07208       -4.00552
C          3.22790        3.92196       -2.85123
C          6.45721       -0.49516       -0.11931
C          5.77707        0.79974        1.93564
C          4.91545       -1.51383        1.53102
H          5.37925        2.26271       -3.35457
H          4.48810        0.90859       -4.03754
H          4.50723        2.46683       -4.86561
H          1.87210        0.99383       -4.10003
H          1.07426        2.49030       -3.60855
H          2.12969        2.48295       -5.00613
H          3.28487        4.47672       -3.78741
H          2.32311        4.23273       -2.32921
H          4.07857        4.20934       -2.23793
H          7.28282       -0.98419        0.39712
H          6.11734       -1.15498       -0.91693
H          6.84704        0.40989       -0.57851
H          4.97547        1.00549        2.64469
H          6.62206        0.39197        2.48989
H          6.08616        1.74754        1.50178
H          4.20778       -1.36196        2.34463
H          5.79218       -2.00087        1.95738
H          4.47106       -2.19949        0.81085
H          6.84517        2.82085       -0.25414
H          6.11217        3.68543       -1.60739
H          5.13670        3.31523       -0.16431
