111
-148.55473003
P         -2.50820        2.00980        0.97205
P          0.18005        0.37452        0.55139
C         -1.44836        1.62446        2.39463
C         -0.25657        0.96012        2.19807
C         -3.28904        3.67990        1.13746
C         -2.61821        4.70155        0.24540
C         -1.83016        1.98608        3.67085
H         -2.77175        2.48738        3.82376
C         -1.01037        1.68807        4.74586
H         -1.30814        1.97023        5.74255
C          0.18650        1.02762        4.54413
H          0.82289        0.79335        5.38156
C          0.56262        0.65775        3.26527
H          1.48418        0.12456        3.09045
Pd        -1.23142        1.49960       -0.88610
Cl        -2.88421        2.44313       -2.07759
Cl         0.10432        0.96658       -2.61082
C         -4.76582        3.39799        0.80474
C         -4.01941        0.94803        0.85279
H         -1.55584        4.79788        0.48192
H         -2.69424        4.41176       -0.80324
H         -3.08011        5.68619        0.34849
H         -4.92319        3.56800       -0.26933
H         -5.42005        4.11930        1.31779
H         -4.07409        0.61558       -0.19256
C         -5.16116        1.93552        1.15974
C         -3.93798       -0.23787        1.78954
H         -3.18635        3.96696        2.19164
H         -5.40566        1.87192        2.22899
H         -6.07822        1.63710        0.62937
H         -3.81687        0.09192        2.82300
H         -4.84144       -0.85006        1.73921
H         -3.08474       -0.87460        1.54665
C         -1.32919       -3.88145       -0.03488
C         -1.15173       -3.38024        1.28049
C         -0.70394       -2.07872        1.43232
C         -0.37729       -1.31407        0.34367
C         -0.44848       -1.82917       -0.92266
C         -0.88002       -3.12428       -1.14678
O         -1.99191       -5.12082       -0.23937
C         -1.46721       -4.21429        2.53192
H         -0.61608       -1.63739        2.40924
H         -0.17945       -1.18531       -1.74190
C         -0.88447       -3.66514       -2.58448
C          4.55332        0.75295       -0.63802
C          4.03622       -0.50676       -0.24093
C          2.70036       -0.58246        0.11583
C          1.91465        0.53948        0.15779
C          2.43636        1.77560       -0.11804
C          3.76449        1.92224       -0.48477
O          5.84277        0.83717       -1.22742
C          4.88123       -1.79018       -0.23703
H          2.24527       -1.53045        0.34553
H          1.78001        2.62746       -0.06593
C          4.31052        3.33175       -0.76052
C         -2.93880       -4.01093        2.92334
C         -1.18505       -5.70764        2.28622
C         -0.57805       -3.77660        3.71816
C         -0.66758       -5.18883       -2.60745
C         -2.21895       -3.30712       -3.25592
C          0.26574       -3.03484       -3.40354
C         -3.39963       -5.00228       -0.40322
H         -3.60617       -4.31280        2.11978
H         -3.19147       -4.59478        3.80805
H         -3.13793       -2.96263        3.14395
H         -1.34539       -6.29123        3.19241
H         -1.83595       -6.11248        1.51521
H         -0.15448       -5.85558        1.96518
H         -0.83087       -2.77524        4.06380
H         -0.70635       -4.44884        4.56624
H          0.47508       -3.78815        3.43824
H         -0.60740       -5.56074       -3.62996
H          0.25749       -5.45205       -2.09559
H         -1.48185       -5.71354       -2.11427
H         -3.05903       -3.74449       -2.72152
H         -2.36335       -2.22701       -3.27288
H         -2.24823       -3.66775       -4.28373
H          0.34936       -3.50833       -4.38141
H          0.10382       -1.97207       -3.57662
H          1.21885       -3.15664       -2.88969
H         -3.90675       -5.59747        0.35606
H         -3.70686       -3.95947       -0.31353
H         -3.68824       -5.38268       -1.38286
C          5.84177        0.68737       -2.64180
C          4.76314       -2.47929       -1.60510
C          6.35638       -1.48451        0.07965
C          4.38105       -2.76802        0.85104
C          4.07576        3.68439       -2.23733
C          3.58682        4.37822        0.11715
C          5.80962        3.42507       -0.42281
H          5.34387       -3.40101       -1.62972
H          3.72467       -2.72857       -1.82192
H          5.12153       -1.83463       -2.40398
H          6.94149       -2.40153        0.14448
H          6.80683       -0.86119       -0.68859
H          6.44366       -0.95849        1.02972
H          5.05422       -3.61993        0.94429
H          4.32945       -2.27459        1.82126
H          3.39492       -3.16536        0.61506
H          3.01347        3.64669       -2.47767
H          4.43826        4.68705       -2.46234
H          4.58729        2.98631       -2.89549
H          4.05666        5.35661        0.01897
H          2.54343        4.49520       -0.17167
H          3.62279        4.09365        1.16842
H          6.40184        2.77287       -1.05961
H          5.98861        3.13398        0.61168
H          6.17928        4.44118       -0.55832
H          6.26462        1.57882       -3.10474
H          6.45982       -0.16604       -2.92017
H          4.82519        0.53524       -3.00688
