171
-217.83873363
P         -1.70764        0.60485       -0.19046
P          1.48576       -0.27055       -0.27822
C         -0.98267        1.67531       -1.45672
C          0.76857       -1.03612       -1.74312
C         -0.12262        1.19439       -2.44157
C          0.55399        2.11549       -3.26488
C          0.29291        3.46762       -3.12755
C         -0.59812        3.92476       -2.18134
C         -1.21886        3.02479       -1.33784
C          0.91952       -2.38836       -1.93735
C          0.38612       -2.99941       -3.05471
C         -0.32246       -2.25024       -3.96844
C         -0.51691       -0.89257       -3.77767
C          0.05472       -0.26610       -2.65233
Cl         1.80982        1.17081        2.58679
Cl        -1.34885        0.63881        3.15159
C         -1.31356       -0.11626       -4.76791
C          1.56004        1.67215       -4.26948
H         -0.79545        4.98017       -2.08637
H         -1.89638        3.38276       -0.58105
H          1.44549       -2.97758       -1.20573
H          0.52116       -4.05697       -3.21185
H          0.80010        4.16459       -3.77332
H         -0.73655       -2.72130       -4.84360
C         -2.89301       -3.60755       -1.33816
C         -1.96621       -3.43022       -0.31880
C         -1.61663       -2.12914        0.01689
C         -2.15324       -1.06462       -0.66787
C         -3.05979       -1.25764       -1.68055
C         -3.45900       -2.54257       -2.02841
H         -3.19358       -4.60684       -1.59416
H         -0.91745       -1.93881        0.81151
H         -3.45377       -0.39576       -2.19186
C         -5.13766        2.65653        1.94964
C         -3.85225        3.15891        2.10683
C         -2.81948        2.51643        1.43707
C         -3.07077        1.42135        0.64845
C         -4.34753        0.93597        0.50823
C         -5.41186        1.54785        1.15842
H         -5.94746        3.13532        2.46893
H         -1.80069        2.84468        1.55452
H         -4.50526        0.06594       -0.10322
C          3.84639       -3.50134        1.91445
C          2.90113       -2.77987        2.63053
C          2.19089       -1.79464        1.95902
C          2.42421       -1.52884        0.63072
C          3.37373       -2.24968       -0.05330
C          4.09630       -3.25857        0.56977
H          4.40306       -4.26408        2.42547
H          1.45534       -1.21914        2.48720
H          3.53257       -2.05013       -1.09884
C          4.20464        3.17281       -1.42538
C          4.50706        1.90033       -1.89660
C          3.67012        0.85531       -1.52603
C          2.57611        1.08230       -0.72860
C          2.28486        2.34979       -0.28856
C          3.09997        3.42299       -0.62159
H          4.84727        3.99475       -1.67864
H          3.87386       -0.14402       -1.86596
H          1.41151        2.49898        0.32083
Pd         0.01549        0.51010        1.38114
C         -2.53591       -5.36352        1.16508
C         -1.39422       -4.64764        0.42171
C         -0.32080       -4.23744        1.44811
C         -0.74577       -5.61369       -0.58723
H         -3.01436       -4.68910        1.87505
H         -3.29878       -5.71480        0.47109
H         -2.16240       -6.22589        1.71702
H          0.50406       -3.71550        0.96470
H         -0.73763       -3.58887        2.21811
H          0.09085       -5.11616        1.94340
H          0.07090       -5.12544       -1.11680
H         -0.33876       -6.48886       -0.08099
H         -1.46567       -5.96221       -1.32646
C         -5.71446       -3.53937       -2.47091
C         -4.51784       -2.80826       -3.10775
C         -3.90883       -3.68015       -4.22033
C         -5.03036       -1.49843       -3.73765
H         -5.41607       -4.50132       -2.05584
H         -6.14284       -2.94524       -1.66386
H         -6.49684       -3.72236       -3.20725
H         -3.55947       -4.63527       -3.83009
H         -4.64222       -3.88607       -4.99977
H         -3.06068       -3.17670       -4.68195
H         -4.21997       -0.94655       -4.21189
H         -5.78019       -1.70399       -4.50145
H         -5.49142       -0.85650       -2.98764
C         -2.11168        4.77069        3.02823
C         -3.59912        4.36311        3.02410
C         -4.00703        3.99433        4.46181
C         -4.43140        5.56248        2.53529
H         -1.48392        3.96056        3.39904
H         -1.77518        5.03860        2.02675
H         -1.94869        5.63391        3.67323
H         -3.82047        4.82217        5.14561
H         -5.06560        3.74386        4.52055
H         -3.43949        3.13197        4.81125
H         -4.17081        5.81804        1.50833
H         -5.49817        5.34412        2.56558
H         -4.25359        6.43975        3.15708
C         -7.35317        0.60739        2.43451
C         -6.85063        1.02496        1.04047
C         -6.93649       -0.19707        0.10421
C         -7.75236        2.13665        0.47318
H         -6.71132       -0.16448        2.85880
H         -7.35946        1.45204        3.12243
H         -8.36755        0.21233        2.38176
H         -6.32808       -1.02118        0.47641
H         -7.96318       -0.55467        0.02720
H         -6.59946        0.05580       -0.90066
H         -7.76874        3.00703        1.12802
H         -7.39526        2.45992       -0.50447
H         -8.77816        1.78654        0.35915
C          3.99253       -2.67686        4.87910
C          2.69967       -3.04594        4.12993
C          2.37590       -4.53411        4.35719
C          1.54256       -2.20489        4.70679
H          4.83318       -3.27763        4.53358
H          4.24256       -1.62823        4.71888
H          3.88290       -2.83855        5.95127
H          3.18513       -5.17622        4.01214
H          2.21805       -4.74016        5.41572
H          1.47067       -4.81797        3.82245
H          0.60593       -2.42017        4.19313
H          1.39635       -2.42207        5.76463
H          1.74777       -1.13834        4.61719
C          4.32021       -4.86848       -1.33197
C          5.09306       -4.08717       -0.25301
C          5.86248       -5.09132        0.62640
C          6.11276       -3.14853       -0.92519
H          3.57668       -5.52203       -0.87586
H          3.79931       -4.19359       -2.01048
H          4.99428       -5.48509       -1.92622
H          6.41597       -4.57864        1.41294
H          5.18491       -5.80821        1.08975
H          6.57999       -5.65597        0.03110
H          6.85934       -3.71678       -1.47975
H          5.62641       -2.47169       -1.62621
H          6.63159       -2.54619       -0.17972
C          6.43352        2.90527       -3.22293
C          5.75729        1.60772       -2.73924
C          5.37510        0.77553       -3.97910
C          6.75827        0.81806       -1.87762
H          5.73846        3.51607       -3.79899
H          6.80079        3.49598       -2.38413
H          7.28750        2.68102       -3.86206
H          4.94685       -0.18649       -3.70132
H          4.64568        1.30543       -4.59048
H          6.25001        0.57841       -4.59840
H          7.04795        1.39360       -0.99868
H          6.32215       -0.11827       -1.53228
H          7.66073        0.58231       -2.44131
C          1.54697        4.89513        0.75859
C          2.83141        4.83963       -0.09384
C          2.67389        5.80916       -1.27884
C          4.01590        5.28106        0.78480
H          1.62535        4.24475        1.62961
H          1.36462        5.90725        1.11921
H          0.67668        4.59054        0.17870
H          3.57700        5.84349       -1.88688
H          1.85003        5.50116       -1.92094
H          2.46835        6.82098       -0.92992
H          3.84863        6.27713        1.19421
H          4.15306        4.59168        1.61772
H          4.94382        5.30559        0.21460
H         -0.67260        0.29255       -5.54975
H          2.47242        2.26420       -4.18333
H         -1.83617        0.71359       -4.28968
H         -2.06357       -0.74510       -5.24951
H          1.17899        1.79064       -5.28466
H          1.83349        0.62560       -4.12862
