171
-217.83846887
P         -1.48284        0.18977       -0.25423
P          1.68390       -0.69818        0.21553
C         -0.65391        0.72322       -1.76688
C          0.88119       -1.92082       -0.84977
C          0.08568       -0.21067       -2.48125
C          0.75851        0.19346       -3.65049
C          0.62819        1.50295       -4.08243
C         -0.11274        2.41729       -3.36343
C         -0.74705        2.02287       -2.20233
C          0.94568       -3.21296       -0.38356
C          0.30991       -4.23313       -1.06451
C         -0.41517       -3.94307       -2.20009
C         -0.51382       -2.64572       -2.67351
C          0.16522       -1.61258       -2.00063
Cl         1.08740       -0.43479        3.43336
Cl        -1.97828       -1.06800        2.84056
C         -1.35873       -2.37741       -3.86952
C          1.59215       -0.76604       -4.42622
H         -0.19109        3.43756       -3.70192
H         -1.30996        2.73829       -1.62990
H          1.49192       -3.41931        0.52517
H          0.37053       -5.24629       -0.70204
H          1.11548        1.80286       -4.99446
H         -0.92535       -4.72996       -2.72960
C         -4.50320       -2.99970       -1.37609
C         -4.50093       -1.79747       -2.07384
C         -3.57109       -0.83494       -1.70112
C         -2.69126       -1.06935       -0.67334
C         -2.70699       -2.26470        0.00046
C         -3.61472       -3.25844       -0.34013
H         -5.21877       -3.75714       -1.63489
H         -3.52706        0.10363       -2.22500
H         -2.00704       -2.41590        0.80187
C         -3.74260        3.73841        1.50336
C         -3.91855        3.40673        0.16719
C         -3.23348        2.30213       -0.32334
C         -2.37445        1.58804        0.47795
C         -2.21701        1.93938        1.79828
C         -2.90132        3.01843        2.33955
H         -4.28206        4.57584        1.90614
H         -3.35965        2.00019       -1.34742
H         -1.56893        1.35742        2.42444
C          5.71048       -2.44542        1.35325
C          5.26891       -2.53938        0.03789
C          4.02650       -2.00022       -0.27036
C          3.26336       -1.40057        0.70083
C          3.71440       -1.31945        1.99236
C          4.95010       -1.83997        2.34766
H          6.66750       -2.85680        1.60999
H          3.64314       -2.05721       -1.27591
H          3.08357       -0.86256        2.73284
C          2.70663        3.49951       -1.16180
C          3.32948        2.41460       -1.76524
C          2.96381        1.14067       -1.34724
C          2.01195        0.97246       -0.37169
C          1.41410        2.06054        0.22211
C          1.75763        3.35135       -0.15749
H          2.99183        4.48652       -1.47337
H          3.43116        0.26713       -1.76726
H          0.68744        1.90731        0.99977
Pd        -0.19267       -0.52268        1.59288
C         -6.33078       -2.72611       -3.58039
C         -5.52511       -1.47731       -3.17290
C         -4.80792       -0.93948       -4.42671
C         -6.49868       -0.41064       -2.64104
H         -7.01813       -2.49414       -4.39389
H         -5.66963       -3.52292       -3.92098
H         -6.92565       -3.10145       -2.74812
H         -4.25959       -0.02276       -4.21452
H         -4.10230       -1.67332       -4.81387
H         -5.52454       -0.71732       -5.21727
H         -7.02159       -0.77315       -1.75624
H         -5.96745        0.49884       -2.36360
H         -7.24385       -0.15004       -3.39239
C         -5.05139       -4.74066        1.07936
C         -3.67299       -4.59704        0.40918
C         -2.58822       -4.68358        1.50158
C         -3.45506       -5.75166       -0.58536
H         -5.22844       -3.91836        1.77235
H         -5.85278       -4.73487        0.34148
H         -5.11850       -5.67397        1.63809
H         -2.63482       -5.64182        2.01850
H         -1.59105       -4.58801        1.07304
H         -2.71923       -3.90030        2.24788
H         -4.22257       -5.76074       -1.35827
H         -2.48698       -5.65886       -1.07581
H         -3.48311       -6.71496       -0.07641
C         -6.28572        4.14022       -0.19601
C         -4.84259        4.25487       -0.71772
C         -4.81065        3.78829       -2.18668
C         -4.38465        5.72511       -0.67096
H         -6.97082        4.72420       -0.81034
H         -6.61854        3.10246       -0.21133
H         -6.36426        4.50131        0.82889
H         -5.45082        4.41643       -2.80598
H         -3.80082        3.84281       -2.59329
H         -5.16695        2.76343       -2.28206
H         -5.00606        6.34753       -1.31458
H         -4.44428        6.12938        0.33869
H         -3.35217        5.81677       -1.00795
C         -2.28562        4.86833        3.92026
C         -2.76747        3.40972        3.81810
C         -1.75762        2.50852        4.55748
C         -4.13893        3.26628        4.50235
H         -2.99615        5.55486        3.46163
H         -2.16008        5.16561        4.96123
H         -1.32815        4.99297        3.41656
H         -2.07333        1.46562        4.53816
H         -0.76685        2.57627        4.10958
H         -1.66743        2.80474        5.60230
H         -4.87978        3.92041        4.04402
H         -4.50202        2.24180        4.42249
H         -4.07628        3.52137        5.56006
C          6.35030       -2.21053       -2.20165
C          6.08481       -3.22086       -1.06990
C          5.28518       -4.41621       -1.62114
C          7.43974       -3.73599       -0.54785
H          6.88698       -1.34098       -1.82273
H          6.95069       -2.65946       -2.99271
H          5.41964       -1.86290       -2.64857
H          5.06902       -5.13266       -0.82886
H          4.33575       -4.09429       -2.04780
H          5.84350       -4.93303       -2.40147
H          7.30136       -4.47563        0.24053
H          8.00700       -4.21086       -1.34832
H          8.04472       -2.91907       -0.15484
C          4.41039       -2.47281        4.71228
C          5.41492       -1.73506        3.80726
C          5.48122       -0.25046        4.21182
C          6.80831       -2.36024        4.01047
H          4.33026       -3.52070        4.42408
H          4.72186       -2.43181        5.75579
H          3.41704       -2.03085        4.64398
H          4.50350        0.22411        4.13683
H          5.82631       -0.14109        5.23975
H          6.16807        0.29453        3.56460
H          7.55666       -1.85851        3.39724
H          7.12270       -2.27364        5.05050
H          6.80419       -3.41972        3.75506
C          4.99240        1.32326       -3.35167
C          4.43232        2.65121       -2.80725
C          5.58680        3.43036       -2.15012
C          3.86509        3.46329       -3.98527
H          5.76375        1.50510       -4.09989
H          5.44090        0.73316       -2.55309
H          4.20900        0.73052       -3.82174
H          5.98704        2.87913       -1.29933
H          6.39892        3.59549       -2.85795
H          5.25406        4.40366       -1.79135
H          3.49036        4.43195       -3.65702
H          4.63051        3.64072       -4.74057
H          3.04311        2.92986       -4.45952
C         -0.36622        4.63453        0.23469
C          1.13260        4.55573        0.56484
C          1.79452        5.88156        0.14159
C          1.32033        4.38797        2.08501
H         -0.84007        5.46686        0.75466
H         -0.51975        4.77506       -0.83476
H         -0.87631        3.72162        0.53303
H          1.36572        6.71965        0.69097
H          2.86544        5.86638        0.34351
H          1.64373        6.07559       -0.92015
H          2.37563        4.27333        2.33158
H          0.94194        5.25655        2.62317
H          0.79293        3.51071        2.45631
H         -1.54314       -1.31023       -3.99912
H          2.38863       -0.25092       -4.96496
H         -2.32744       -2.86962       -3.77074
H         -0.88389       -2.75348       -4.77673
H          0.98945       -1.30226       -5.15999
H          2.05968       -1.50118       -3.76909
