58
-89.86452804
P          1.70874        0.28432        0.77961
C          2.94572        1.51946        0.37828
C          4.24825        1.14334        0.14289
C          5.19337        2.10219       -0.17440
C          4.82476        3.43076       -0.25430
C          3.51579        3.80267       -0.01828
C          2.57258        2.84146        0.29960
H          1.54419        3.11453        0.47794
H          4.51863        0.10147        0.20297
C          2.33632       -1.37232        0.46827
C          2.51772       -1.75195       -0.84222
C          2.96251       -3.02663       -1.13887
C          3.22532       -3.91511       -0.11540
C          3.05001       -3.52940        1.19906
C          2.60583       -2.25270        1.49191
H          2.47040       -1.94411        2.51529
H          2.30098       -1.04322       -1.62588
C          1.26662        0.53831        2.54671
C          0.08031       -0.27464        3.04363
C         -1.26855        0.28948        2.62798
P         -1.72456        0.05046        0.86248
C         -1.98580       -1.69850        0.52405
C         -0.89221       -2.53423        0.52542
C         -1.04802       -3.88079        0.25469
C         -2.30384       -4.38388       -0.01988
C         -3.39867       -3.54208       -0.03162
C         -3.23707       -2.19527        0.23835
H         -4.08144       -1.52749        0.21021
H          0.08839       -2.12504        0.69757
C         -3.20579        1.03497        0.58516
C         -4.33805        0.75465        1.31780
C         -5.48037        1.51519        1.14140
C         -5.47911        2.55927        0.23807
C         -4.33841        2.84682       -0.48447
C         -3.19863        2.08422       -0.30573
H         -2.30375        2.29934       -0.86656
H         -4.32290       -0.05325        2.03243
Pd        -0.05542        0.38880       -0.71490
Cl         1.43484        1.09521       -2.25028
Cl        -1.68621        0.32277       -2.26278
H         -2.07865       -0.16824        3.20110
H         -1.31248        1.36219        2.82591
H          0.16912       -1.31465        2.70794
H          0.11958       -0.32776        4.14288
H          2.17390        0.30847        3.11084
H          1.08129        1.60545        2.68273
H          6.21393        1.81156       -0.36219
H          3.22731        4.83876       -0.08551
H          3.09971       -3.32480       -2.16521
H          3.25833       -4.22286        1.99724
H         -0.18843       -4.53063        0.24845
H         -4.37769       -3.93238       -0.25642
H         -6.36831        1.29379        1.71050
H         -4.33551        3.66223       -1.18903
H          5.55954        4.17861       -0.50438
H          3.57013       -4.91068       -0.34269
H         -2.42858       -5.43287       -0.23376
H         -6.36857        3.15185        0.09853
