45
-71.81461042
C          0.30316        0.57567        2.47428
P          0.92909        0.61508        0.76015
P         -1.61361        0.27455       -1.04208
C         -2.41654       -0.05108       -2.64714
Cl         1.77746       -2.37288        0.43797
H         -0.78267        0.59753        2.47194
H         -1.69791        0.07454       -3.45196
Cl        -1.13570       -2.82918       -1.37583
C          0.28513        2.03901       -0.14208
C         -0.81428        1.88995       -0.95855
C         -1.32123        2.97423       -1.64497
C         -0.71136        4.21027       -1.52116
C          0.39574        4.35793       -0.70773
C          0.89539        3.26973       -0.01413
H         -2.19309        2.85042       -2.26636
H         -1.10301        5.05883       -2.05760
H          0.86999        5.32073       -0.61144
H          1.75817        3.36902        0.62482
Pd         0.06203       -1.20110       -0.40513
H         -3.24436        0.63598       -2.79720
H          0.67143        1.43711        3.02401
H         -2.79542       -1.06891       -2.66832
C         -4.42086       -0.22815        2.49684
C         -3.94989        1.02782        2.16665
C         -3.10585        1.18411        1.08203
C         -2.74463        0.08584        0.33636
C         -3.20319       -1.16801        0.66688
C         -4.04781       -1.32816        1.74949
H         -5.07815       -0.35065        3.34218
H         -4.23729        1.88476        2.75344
H         -2.72283        2.15615        0.81626
H         -2.87296       -2.01546        0.08783
H         -4.40764       -2.30938        2.01203
C          5.46402        0.48983        0.40816
C          4.87807        0.35711        1.65155
C          3.50089        0.39983        1.77398
C          2.72110        0.57749        0.65393
C          3.30003        0.70632       -0.58809
C          4.67739        0.66399       -0.71318
H          6.53694        0.45379        0.31234
H          5.49220        0.21593        2.52577
H          3.03304        0.28861        2.73851
H          2.67065        0.83713       -1.45468
H          5.13362        0.76305       -1.68439
H          0.63375       -0.33291        2.96942
