111
-148.54949014
P         -2.18426        2.39688        0.96195
P         -0.08344        0.07185        0.55450
C         -1.33579        1.69807        2.39890
C         -0.39473        0.71119        2.21103
C         -2.21164        4.24514        1.09193
C         -1.18945        4.90233        0.19029
C         -1.60384        2.16262        3.67069
H         -2.34731        2.93008        3.81215
C         -0.91968        1.63749        4.75344
H         -1.12867        1.99827        5.74731
C          0.03383        0.65617        4.56103
H          0.56987        0.25041        5.40315
C          0.29859        0.19259        3.28479
H          1.03968       -0.57334        3.11645
Pd        -1.33515        1.36544       -0.92423
Cl        -2.18003        3.00149       -2.19911
Cl        -0.24162        0.29715       -2.57670
C         -3.67786        4.58634        0.77256
C         -4.00255        2.05072        0.92670
H         -1.38707        4.67258       -0.85662
H         -1.20483        5.98951        0.29535
H         -0.17954        4.55410        0.41634
H         -3.77103        4.76436       -0.30766
H         -3.96646        5.53249        1.25527
H         -4.22565        1.72168       -0.09713
C         -4.63165        3.43148        1.19239
C         -4.37590        0.97866        1.92827
H         -1.99262        4.47555        2.14264
H         -4.85946        3.51648        2.26371
H         -5.60068        3.51634        0.67773
H         -4.11987        1.28918        2.94274
H         -5.44779        0.76839        1.90758
H         -3.84262        0.04597        1.72805
C         -1.13130       -4.36237        0.25963
C         -1.34807       -3.66890        1.47774
C         -1.00837       -2.32773        1.53885
C         -0.54968       -1.65933        0.43299
C         -0.46448       -2.29917       -0.77575
C         -0.77150       -3.64163       -0.90680
O         -1.24209       -5.77768        0.21616
C         -1.91509       -4.35359        2.73134
H         -1.09462       -1.78547        2.46311
H         -0.16046       -1.72156       -1.62936
C         -0.68170       -4.29741       -2.29383
C          4.11742        0.99929       -0.91704
C          3.67730       -0.34918       -0.89084
C          2.40005       -0.61171       -0.42632
C          1.60475        0.39196        0.06024
C          2.06744        1.67928        0.14437
C          3.33921        2.00972       -0.29497
O          5.30587        1.34423       -1.61344
C          4.53010       -1.51412       -1.41576
H          1.99840       -1.60837       -0.46436
H          1.40658        2.43179        0.54035
C          3.82544        3.45833       -0.13693
C         -2.88739       -5.48600        2.35377
C         -0.75779       -4.90900        3.57491
C         -2.71220       -3.34431        3.58951
C         -0.99280       -3.26930       -3.40571
C          0.74116       -4.83475       -2.51043
C         -1.70730       -5.43652       -2.43609
C         -0.03001       -6.46217        0.50717
H         -3.68861       -5.10818        1.71953
H         -2.38022       -6.28052        1.81213
H         -3.33756       -5.92861        3.24198
H         -0.07936       -4.10952        3.87195
H         -1.12959       -5.38988        4.47934
H         -0.18055       -5.64274        3.01731
H         -2.06352       -2.59243        4.03653
H         -3.46525       -2.83473        2.98883
H         -3.22377       -3.85136        4.40732
H         -1.94182       -2.76847       -3.21659
H         -0.21516       -2.51101       -3.48376
H         -1.06009       -3.75827       -4.37719
H          1.46955       -4.02629       -2.45743
H          1.00550       -5.56882       -1.75301
H          0.83519       -5.30891       -3.48702
H         -1.68673       -5.85940       -3.44019
H         -1.50439       -6.24299       -1.73590
H         -2.71528       -5.07144       -2.24210
H         -0.17494       -7.11090        1.37087
H          0.25173       -7.08414       -0.34230
H          0.76882       -5.74975        0.71718
C          5.09100        1.67549       -2.97986
C          4.21366       -2.81273       -0.63906
C          4.21345       -1.73937       -2.90222
C          6.03253       -1.23594       -1.22902
C          3.34831        4.28456       -1.34110
C          3.25075        4.08299        1.15488
C          5.35899        3.52661       -0.02007
H          4.89882       -3.61071       -0.92434
H          4.31187       -2.65496        0.43463
H          3.20559       -3.17071       -0.84107
H          4.45016       -0.85718       -3.49257
H          4.78575       -2.57615       -3.30176
H          3.15459       -1.95595       -3.04198
H          6.25743       -1.02962       -0.18318
H          6.63126       -2.09062       -1.54294
H          6.35323       -0.37783       -1.81424
H          3.66493        5.32344       -1.25264
H          3.74746        3.88880       -2.27228
H          2.26105        4.26753       -1.41390
H          3.46826        3.45457        2.01811
H          3.68656        5.06508        1.33695
H          2.17248        4.21848        1.09458
H          5.70891        2.90535        0.80365
H          5.69324        4.54816        0.15940
H          5.84300        3.17804       -0.92870
H          4.03365        1.58085       -3.23094
H          5.41748        2.69857       -3.16558
H          5.67568        1.00941       -3.61419
