72
-98.09813592
Fe        -0.00914        2.75877       -0.02691
P          1.88205       -0.10309        0.02788
P         -1.87379       -0.09943       -0.02850
C          1.44325        1.54886        0.69355
C          0.45508        1.81963        1.72338
C          0.39297        3.25782        1.91813
C          1.37390        3.87830        1.04662
C          2.01406        2.82159        0.28245
C         -1.42321        1.54068       -0.72064
C         -2.01562        2.81803       -0.35620
C         -1.35544        3.85479       -1.13180
C         -0.38588        3.21949       -2.00552
C         -0.42869        1.79030       -1.75094
C          3.27130       -0.80341        1.02859
C          4.49999       -0.23929        0.29555
C          2.77325        0.07791       -1.58945
C          4.25752       -0.16624       -1.23705
C         -3.27152       -0.79493       -1.02310
C         -4.49503       -0.21227       -0.29605
C         -2.76707        0.12380        1.58368
C         -4.25119       -0.12483        1.23539
H         -0.13898        1.07565        2.25343
H         -0.25026        3.77851        2.63147
H          1.58832        4.94674        0.97413
H          2.80795        2.95374       -0.45558
H         -2.81703        2.96717        0.37055
H          0.16810        1.03354       -2.25975
Cl         1.58743       -3.08256       -0.24971
Cl        -1.63778       -3.01668        0.31375
Pd         0.00829       -1.49607        0.02319
H          3.23262       -1.89332        0.91946
C          3.18445       -0.42243        2.50134
H          2.61023        1.11127       -1.91722
C          2.23333       -0.89808       -2.62905
H          5.39417       -0.83848        0.52776
H          4.70902        0.76712        0.68554
H          4.89399        0.60452       -1.69640
H          4.57528       -1.11356       -1.69311
H         -1.57871        4.92342       -1.09266
H          0.25737        3.72426       -2.72980
H          4.13489       -0.66940        2.99461
H          2.45163       -1.92190       -2.29761
H         -3.24508       -1.88420       -0.90552
C         -3.17983       -0.42791       -2.49908
H         -2.60200        1.16542        1.88320
C         -2.23289       -0.82316        2.65266
H         -5.39429       -0.80645       -0.52129
H         -4.69588        0.79155       -0.69673
H         -4.88768        0.64971        1.68830
H         -4.56755       -1.06818        1.70053
H         -4.13132       -0.67200       -2.99175
H         -1.13811       -0.76785        2.67807
C          2.03198       -1.10684        3.21800
H          2.13788       -2.19294        3.18904
H          1.96223       -0.80858        4.26646
H          1.08034       -0.86881        2.74392
C          2.79825       -0.65877       -4.02102
H          3.88551       -0.75286       -4.03088
H          2.40090       -1.36719       -4.75145
H          2.55954        0.34617       -4.37445
C         -2.03123       -1.12761       -3.20710
H         -1.07921       -0.89477       -2.73116
H         -2.14687       -2.21249       -3.17081
H         -1.95528       -0.83735       -4.25736
C         -2.80072       -0.54114        4.03536
H         -2.56018        0.47320        4.35948
H         -3.88827       -0.63197        4.04491
H         -2.40732       -1.22864        4.78759
H          3.09197        0.66870        2.58035
H          1.13858       -0.83984       -2.65332
H         -3.07885        0.66171       -2.58788
H         -2.45393       -1.85549        2.35120
