111
-148.55092755
P         -2.59853        1.96467       -0.45988
P          0.07055        0.51635        0.40033
C         -1.89849        2.27865        1.18178
C         -0.71963        1.66382        1.54211
C         -3.15260        3.54283       -1.25485
C         -2.37135        3.82864       -2.51863
C         -2.52750        3.13251        2.06510
H         -3.44321        3.62036        1.77368
C         -1.97684        3.35793        3.31494
H         -2.46823        4.02285        4.00635
C         -0.79889        2.73268        3.67682
H         -0.37127        2.90671        4.65049
C         -0.16812        1.88172        2.78698
H          0.74991        1.38262        3.05417
Pd        -1.06050        0.67474       -1.61545
Cl        -2.46785        0.70224       -3.36074
Cl         0.58284       -0.48470       -2.60930
C         -4.66431        3.32120       -1.48084
C         -4.18944        1.02034       -0.45948
H         -2.53930        3.04711       -3.26064
H         -2.67084        4.77792       -2.96909
H         -1.29742        3.87113       -2.32151
H         -4.96303        3.78625       -2.43136
H         -5.23990        3.84588       -0.70429
H         -3.96054        0.01158       -0.82992
C         -5.04347        1.81277       -1.47007
C         -4.79486        0.95797        0.92617
H         -2.97758        4.33685       -0.51612
H         -6.11015        1.68112       -1.23578
H         -4.90569        1.39652       -2.47900
H         -4.10154        0.51513        1.64342
H         -5.04109        1.95906        1.28392
H         -5.71611        0.37058        0.93578
C         -1.23430       -3.76976        1.20007
C         -0.06705       -3.52315        0.43298
C          0.30677       -2.20775        0.21441
C         -0.38206       -1.17194        0.78776
C         -1.45235       -1.40822        1.61031
C         -1.87838       -2.69980        1.87320
O         -1.78652       -5.07706        1.25725
C          0.76075       -4.64529       -0.21188
H          1.12473       -1.96934       -0.44319
H         -1.96101       -0.56257        2.03822
C         -3.04698       -2.92099        2.84631
C          4.57316        1.16797        0.15812
C          3.72262        1.70498       -0.84442
C          2.35655        1.51596       -0.71420
C          1.84101        0.74940        0.29790
C          2.66755        0.12000        1.19251
C          4.04282        0.27784        1.12929
O          5.92788        1.58183        0.23548
C          4.22955        2.45227       -2.08967
H          1.67463        1.96437       -1.41720
H          2.22328       -0.50235        1.95098
C          4.90811       -0.53678        2.10598
C          2.25089       -4.24356       -0.28838
C          0.69302       -5.94126        0.61631
C          0.24434       -4.89604       -1.63689
C         -2.89808       -4.25765        3.59579
C         -3.08289       -1.80748        3.91789
C         -4.37070       -2.89754        2.06716
C         -2.72392       -5.35263        0.22357
H          2.85871       -5.07625       -0.64150
H          2.41388       -3.41503       -0.97572
H          2.62004       -3.95354        0.69441
H          1.33494       -6.71213        0.19063
H          1.01573       -5.75875        1.64079
H         -0.31770       -6.33908        0.65197
H          0.32396       -3.99132       -2.23930
H          0.81825       -5.68106       -2.12845
H         -0.80087       -5.19643       -1.62993
H         -1.94255       -4.30078        4.11739
H         -3.69228       -4.38523        4.33095
H         -2.94367       -5.10255        2.91312
H         -2.11626       -1.71450        4.41226
H         -3.34242       -0.84097        3.48965
H         -3.82889       -2.02902        4.68078
H         -4.48863       -1.95466        1.53477
H         -4.40995       -3.69776        1.33226
H         -5.22115       -3.01593        2.73808
H         -2.88085       -4.46678       -0.39323
H         -2.35596       -6.16726       -0.39976
H         -3.67150       -5.66266        0.66397
C          6.10111        2.74501        1.02736
C          3.52211        1.89127       -3.34379
C          3.90808        3.94962       -1.95614
C          5.74153        2.26844       -2.30698
C          4.75987        0.04209        3.52255
C          4.43573       -2.00682        2.10465
C          6.39482       -0.54549        1.70930
H          2.45133        2.08662       -3.32743
H          3.92073        2.34435       -4.25103
H          3.66438        0.81336       -3.41494
H          4.40390        4.38228       -1.08922
H          4.23579        4.49825       -2.83879
H          2.83648        4.10931       -1.84061
H          6.31376        2.72830       -1.50470
H          5.99928        1.21035       -2.33692
H          6.06229        2.72378       -3.24363
H          5.34784       -0.52926        4.24040
H          5.09653        1.07657        3.56044
H          3.71982        0.01882        3.84643
H          3.41530       -2.10606        2.47074
H          4.47616       -2.41854        1.09677
H          5.07098       -2.62000        2.74335
H          6.51600       -0.88334        0.68068
H          6.97020       -1.20803        2.35549
H          6.82949        0.44820        1.78719
H          5.75302        2.56065        2.04265
H          7.15843        3.00972        1.05092
H          5.53215        3.57213        0.60583
