115
-277.93640173
P         -1.69095       -0.09428       -0.13823
P          1.85294       -0.73993        0.44484
C         -1.49260        1.67592       -0.45906
C         -2.60416        2.48147       -0.34408
H         -3.57959        2.03780       -0.21646
C         -2.45165        3.85079       -0.28182
H         -3.29561        4.48295       -0.05788
C         -1.19062        4.41953       -0.36613
C         -0.10023        3.60880       -0.63885
H          0.87576        4.06686       -0.72664
C         -0.25282        2.23789       -0.68175
H          0.61099        1.61049       -0.81897
C         -3.17951       -0.70464       -0.94787
C         -3.76179       -1.84999       -0.45718
H         -3.32417       -2.35163        0.39074
C         -4.90885       -2.34265       -1.04299
H         -5.38776       -3.22953       -0.66020
C         -5.47394       -1.69527       -2.12523
C         -4.88014       -0.54778       -2.61347
H         -5.33705       -0.04787       -3.45311
C         -3.73221       -0.05384       -2.02695
H         -3.25798        0.83124       -2.41949
C         -1.69111       -0.63262        1.60985
C         -1.06320       -1.85400        1.78453
H         -0.60683       -2.33857        0.93759
C         -0.85918       -2.39357        3.05510
C         -1.52102       -1.79466        4.12071
H         -1.41421       -2.21094        5.10849
C         -2.16875       -0.58720        3.95317
H         -2.56693       -0.07798        4.81434
C         -2.16312        0.07180        2.72433
C          1.37985       -0.26734        2.14868
C          0.70674        0.93732        2.16082
H          0.48808        1.42254        1.22825
C          0.14274        1.45358        3.32472
C          0.46907        0.83706        4.52622
H          0.07980        1.23569        5.44810
C          1.14605       -0.36606        4.52928
H          1.27977       -0.89261        5.45911
C          1.50695       -0.99825        3.33897
C         -2.34206        1.57253        2.73991
H         -3.20228        1.82530        3.36953
H         -2.62850        1.89722        1.74260
C         -1.06179        2.35124        3.22262
H         -0.83017        3.18662        2.55294
H         -1.23993        2.81873        4.19715
C          0.32143       -3.29454        3.31565
H          0.37045       -4.07218        2.54621
H          0.15303       -3.84373        4.24876
C          1.67663       -2.50000        3.38803
H          2.22970       -2.77057        4.29543
H          2.33957       -2.81806        2.58775
C          2.81941       -2.24968        0.52592
C          4.06082       -2.20826        1.12622
C          2.21005       -3.45546        0.25159
C          4.63892       -3.38308        1.57130
C          2.79477       -4.62646        0.68480
C          3.97408       -4.58977        1.41291
C          2.85822        0.55649       -0.29857
C          3.10434        0.53879       -1.65186
C          3.24945        1.63412        0.46336
C          3.68753        1.62920       -2.26077
H          2.79615       -0.30980       -2.23941
C          3.83390        2.72498       -0.14395
H          3.05579        1.64463        1.52352
C          4.03067        2.73919       -1.51311
H          3.82650        1.66295       -3.33004
H          4.08089        3.60652        0.42634
Pd         0.19468       -1.02289       -1.19769
Cl        -1.22651       -1.15635       -2.93679
Cl         1.74289       -2.16660       -2.36437
H          2.27755       -5.56650        0.57982
H          1.24209       -3.47908       -0.22250
H          5.54570       -3.36722        2.15558
H          4.51875       -1.25590        1.34399
C         -2.12974        6.76385       -0.11190
C         -0.94346        5.80129        0.18764
C         -0.70015        5.60500        1.71684
F         -2.37010        6.71711       -1.43081
F         -3.21914        6.36562        0.55941
F         -1.78567        8.00926        0.25191
F          0.16005        6.33099       -0.34546
F         -1.75513        4.97413        2.24966
F          0.38093        4.82453        1.85602
F         -0.50379        6.79332        2.30392
C         -6.74648       -3.72254       -2.90951
C         -6.77264       -2.17654       -2.72108
C         -7.93759       -1.71232       -1.80039
F         -7.82882       -4.09997       -3.60730
F         -5.63010       -4.02959       -3.58691
F         -6.72839       -4.32173       -1.71077
F         -6.95787       -1.62495       -3.92354
F         -7.92277       -0.37100       -1.78102
F         -9.10313       -2.15717       -2.29323
F         -7.73528       -2.18408       -0.56135
C          3.08930        4.88220       -2.26497
C          4.38505        4.01914       -2.22264
C          5.57119        4.73911       -1.51788
F          2.15047        4.16179       -2.89622
F          2.68371        5.12399       -1.01076
F          3.32915        6.02556       -2.92355
F          4.75109        3.76429       -3.48167
F          6.58560        3.86473       -1.43930
F          5.93489        5.80479       -2.24822
F          5.20360        5.11785       -0.28584
C          3.35823       -5.58265        3.56811
C          4.31072       -5.73275        2.33792
C          4.15975       -7.10644        1.62283
F          3.57062       -6.58467        4.43149
F          3.62668       -4.40231        4.14259
F          2.08712       -5.57681        3.14367
F          5.56920       -5.62594        2.77071
F          2.87375       -7.31335        1.30735
F          4.90080       -7.06656        0.50539
F          4.60436       -8.07581        2.43748
