105
-153.06858950
Cl         0.42775        2.00776        3.05655
Pd        -0.31237        1.50183        0.98272
P         -1.21056        0.74352       -1.01944
N         -0.18184       -0.35969       -1.91432
C          0.35606       -1.61419       -1.66454
C          0.26271       -2.28894       -0.42198
C          0.95741       -3.50270       -0.23845
C          0.85699       -4.19977        1.09698
C          1.92820       -5.27756        1.32349
C          2.06377       -6.17907        0.09290
C          2.45020       -5.35822       -1.14728
C          1.69142       -4.06175       -1.28674
C          1.73378       -3.40387       -2.50852
C          1.08583       -2.21040       -2.69288
H          1.15799       -1.70065       -3.63795
H          2.30571       -3.83471       -3.31293
H          3.52258       -5.13163       -1.12018
H          2.79422       -6.97996        0.27558
H          2.89220       -4.79450        1.52668
H          0.91335       -3.44721        1.89298
C         -0.69792       -1.87131        0.62762
C         -0.23804       -1.24807        1.82042
C         -1.14931       -1.06031        2.86429
C         -2.45536       -1.45933        2.74346
C         -2.91396       -2.09866        1.59778
C         -4.34753       -2.57589        1.57781
C         -4.78731       -3.27155        0.27697
C         -3.63997       -4.06518       -0.35448
C         -2.44959       -3.14266       -0.65108
C         -2.02705       -2.32451        0.54373
H         -1.59767       -3.73297       -1.01011
H         -3.97400       -4.58144       -1.26568
H         -5.13467       -2.51972       -0.44049
H         -5.00092       -1.71957        1.78749
H         -3.14355       -1.29086        3.55444
H         -0.81668       -0.56206        3.75779
N          1.07847       -0.79195        1.97108
P          1.73239        0.26748        0.71617
C          2.92772       -0.62722       -0.27691
C          3.28639       -0.19016       -1.52939
C          4.24836       -0.88175       -2.24292
C          4.86046       -2.00507       -1.70178
C          4.51001       -2.40635       -0.41982
C          3.54407       -1.71628        0.28985
H          3.25712       -2.02434        1.28273
H          4.99326       -3.26328        0.01723
C          5.89966       -2.74497       -2.46933
H          4.52905       -0.55296       -3.22891
H          2.81426        0.68512       -1.94377
C          2.69336        1.61899        1.40742
C          3.47978        1.40745        2.51361
C          4.22848        2.44947        3.03029
C          4.19205        3.70627        2.44081
C          3.40770        3.89179        1.31014
C          2.66038        2.84921        0.79362
H          2.04927        2.99041       -0.08414
H          3.38461        4.85858        0.83696
C          5.01218        4.82326        2.98586
H          4.84624        2.29206        3.89786
H          3.50777        0.42973        2.96726
H          1.27535       -0.32234        2.84556
H         -0.19044       -0.04731       -2.87765
C         -1.03886        2.33483       -1.83422
C          0.19848        2.69482       -2.31284
C          0.37699        3.93703       -2.89412
C         -0.68293        4.82874       -2.99012
C         -1.92589        4.44441       -2.50401
C         -2.10121        3.20274       -1.92111
H         -3.05959        2.91002       -1.52400
H         -2.75537        5.12654       -2.57972
C         -0.49719        6.15791       -3.63548
H          1.34270        4.22193       -3.27547
H          1.01970        2.00256       -2.22527
C         -2.91844        0.24959       -1.26490
C         -3.25888       -0.31977       -2.46927
C         -4.57613       -0.65772       -2.72544
C         -5.56270       -0.41963       -1.77841
C         -5.20371        0.17793       -0.57806
C         -3.88688        0.51032       -0.32565
H         -3.61194        1.00281        0.59079
H         -5.96358        0.38735        0.15531
C         -6.98354       -0.76444       -2.06039
H         -4.84588       -1.10638       -3.66615
H         -2.49167       -0.49792       -3.20573
Cl        -2.29008        2.41784        1.53127
H          2.30118       -5.95380       -2.05707
H          1.70195       -5.87221        2.21980
H          1.10885       -6.68787       -0.08994
H         -0.14127       -4.64471        1.18431
H         -3.32233       -4.85695        0.33556
H         -2.69969       -2.46590       -1.47356
H         -4.48905       -3.26134        2.42213
H         -5.65500       -3.92160        0.45736
H          6.88827       -2.31865       -2.29385
H          5.92951       -3.79620       -2.17912
H          5.69990       -2.70415       -3.54105
H          4.53681        5.78735        2.79994
H          5.14574        4.72357        4.06393
H          6.00024        4.83993        2.52391
H         -1.21209        6.88657       -3.25081
H          0.50442        6.54829       -3.44982
H         -0.63649        6.08733       -4.71507
H         -7.53027       -0.96797       -1.13850
H         -7.48599        0.05522       -2.57570
H         -7.05498       -1.65265       -2.68982
