111
-148.55265433
P         -2.50149        2.20167        0.49107
P          0.09973        0.40113        0.51239
C         -1.49523        2.09199        1.99347
C         -0.36443        1.30528        1.99992
C         -2.85481        3.97346        0.08704
C         -2.32262        4.33299       -1.28307
C         -1.84622        2.80405        3.12269
H         -2.71757        3.43793        3.10298
C         -1.07201        2.70858        4.26599
H         -1.34688        3.26189        5.14912
C          0.05245        1.90602        4.27539
H          0.65490        1.82984        5.16560
C          0.40824        1.20387        3.13777
H          1.28540        0.57735        3.13019
Pd        -1.45033        0.92888       -1.13215
Cl        -3.21417        1.39133       -2.43886
Cl        -0.28688       -0.31324       -2.58937
C         -4.38997        4.07215        0.21411
C         -4.22804        1.55737        0.67309
H         -2.50688        5.38306       -1.52222
H         -1.24682        4.15376       -1.35182
H         -2.80646        3.73075       -2.05356
H         -4.77387        4.78109       -0.53365
H         -4.65828        4.50084        1.19078
H         -4.28358        0.64270        0.06745
C         -5.07709        2.68663        0.05519
C         -4.56947        1.26355        2.11922
H         -2.35472        4.57441        0.85887
H         -6.07567        2.69209        0.51627
H         -5.24331        2.48451       -1.01325
H         -3.84376        0.58480        2.57262
H         -4.57107        2.18165        2.70851
H         -5.56098        0.81438        2.21379
C         -0.86479       -4.03360        0.88974
C         -1.86756       -3.06163        1.14163
C         -1.51804       -1.72248        1.06382
C         -0.26132       -1.34563        0.66520
C          0.66776       -2.28069        0.29046
C          0.38996       -3.63427        0.36395
O         -1.09731       -5.40138        1.19374
C         -3.31627       -3.43737        1.49100
H         -2.22856       -0.95025        1.30379
H          1.61922       -1.93678       -0.07326
C          1.44577       -4.64686       -0.10585
C          4.37058        1.05319       -0.93997
C          3.29652        1.73824       -1.56687
C          2.01428        1.51911       -1.09179
C          1.78671        0.71995       -0.00170
C          2.83448        0.16507        0.68752
C          4.14301        0.34587        0.27034
O          5.64338        1.00417       -1.56447
C          3.46574        2.70111       -2.75381
H          1.16835        1.95567       -1.59499
H          2.62046       -0.43962        1.55236
C          5.26471       -0.22984        1.15149
C         -3.70619       -4.79769        0.88394
C         -3.47739       -3.47234        3.01806
C         -4.29723       -2.39504        0.90942
C          2.32098       -5.06266        1.08582
C          0.77645       -5.88537       -0.72865
C          2.35438       -4.02725       -1.19237
C         -0.78248       -5.75557        2.53432
H         -3.11537       -5.60632        1.30618
H         -4.75540       -5.02451        1.07145
H         -3.54670       -4.79574       -0.19382
H         -2.80914       -4.20352        3.46752
H         -3.24461       -2.50028        3.45235
H         -4.49841       -3.73108        3.29734
H         -4.20180       -1.43422        1.40959
H         -4.11943       -2.24685       -0.15549
H         -5.32969       -2.71996        1.03573
H          2.80241       -4.19343        1.53276
H          1.72908       -5.54730        1.85838
H          3.10010       -5.75792        0.77423
H          0.12023       -5.59489       -1.54840
H          1.52083       -6.57910       -1.11859
H          0.17797       -6.42169        0.00405
H          2.98756       -3.23928       -0.78740
H          3.01585       -4.78053       -1.61958
H          1.75862       -3.60680       -2.00218
H         -1.68922       -6.05334        3.06016
H         -0.09505       -6.60148        2.53391
H         -0.32310       -4.91285        3.05250
C          5.77925       -0.09887       -2.44527
C          4.92797        3.13702       -2.95065
C          2.95237        2.02343       -4.03543
C          2.64302        3.98336       -2.49727
C          6.64870        0.33087        0.78067
C          5.00434        0.15225        2.62540
C          5.27999       -1.76227        1.02462
H          5.33092        3.55716       -2.02979
H          5.55531        2.29583       -3.23569
H          5.01144        3.89022       -3.73377
H          1.90663        1.73554       -3.93167
H          3.03301        2.69430       -4.89023
H          3.52178        1.12380       -4.26014
H          2.92915        4.44066       -1.55054
H          2.80826        4.71518       -3.28758
H          1.57409        3.77949       -2.46406
H          6.63858        1.42015        0.79579
H          7.41172       -0.01228        1.47897
H          6.94885        0.01418       -0.21529
H          4.09216       -0.30329        3.00696
H          5.82349       -0.17909        3.26313
H          4.91151        1.23274        2.73148
H          4.32480       -2.18679        1.33104
H          6.05669       -2.19748        1.65290
H          5.46695       -2.07117       -0.00204
H          6.77415       -0.08308       -2.89073
H          5.64301       -1.03180       -1.90081
H          5.03074       -0.04189       -3.23374
