87
-129.18569073
P         -1.54441       -0.30167       -0.37252
P          1.70164        0.38770        0.09187
C         -1.18881        0.93398       -1.62702
C          1.56329       -0.71787       -1.33461
C         -0.12194        0.73842       -2.49501
C          0.14791        1.71907       -3.47061
C         -0.66366        2.83925       -3.54353
C         -1.71983        3.01174       -2.67382
C         -1.97951        2.05342       -1.71427
C          2.30046       -1.87617       -1.25866
C          2.19603       -2.84200       -2.24003
C          1.33174       -2.64907       -3.29486
C          0.57003       -1.49755       -3.39030
C          0.69572       -0.50036       -2.40365
Cl         1.13594        0.12829        3.25596
Cl        -1.54426       -1.62872        2.54630
H         -2.33787        3.89213       -2.73951
H         -2.80636        2.17671       -1.03488
H          2.95918       -2.03136       -0.42014
H          2.77725       -3.74708       -2.17318
H         -0.45462        3.58647       -4.29017
H          1.23335       -3.40498       -4.05550
C         -2.23336       -4.34096       -2.32856
C         -1.32023       -4.23924       -1.28791
C         -1.14438       -3.00276       -0.67906
C         -1.84205       -1.90275       -1.12030
C         -2.73753       -2.00830       -2.15841
C         -2.93884       -3.23562       -2.76248
H         -2.38680       -5.29720       -2.79898
C         -0.56560       -5.42892       -0.80922
H         -0.45097       -2.90243        0.13881
H         -3.26473       -1.12980       -2.49634
H         -3.64037       -3.32692       -3.57543
C         -5.13269        1.03028        2.10137
C         -5.20397       -0.13675        1.36641
C         -4.12045       -0.54370        0.61115
C         -2.97762        0.22040        0.59174
C         -2.90327        1.38081        1.32705
C         -3.97890        1.80202        2.09823
H         -5.97643        1.34973        2.68896
H         -6.10193       -0.73238        1.38408
H         -4.15834       -1.45823        0.04251
H         -2.00308        1.97044        1.30149
C         -3.89330        3.06753        2.87670
C          5.68786       -0.25220        2.19861
C          5.49963        0.85526        1.39566
C          4.28731        1.04818        0.76019
C          3.27259        0.13577        0.93352
C          3.45965       -0.96958        1.73121
C          4.67342       -1.18323        2.37314
H          6.62766       -0.39958        2.70295
H          6.29489        1.57121        1.26742
H          4.12503        1.91112        0.13529
H          2.64965       -1.66509        1.87745
C          4.85533       -2.35813        3.26816
C          0.90774        4.79732       -0.66389
C          1.78160        4.11342       -1.48652
C          2.04123        2.77505       -1.25733
C          1.42278        2.13475       -0.20979
C          0.58007        2.82226        0.63330
C          0.30244        4.16570        0.41382
H          0.68999        5.83480       -0.85222
H          2.25005        4.61797       -2.31556
H          2.70548        2.22050       -1.90086
H          0.15728        2.31910        1.48592
C         -0.65698        4.89327        1.28803
Pd        -0.05164       -0.38452        1.42582
C          1.28652        1.57983       -4.42031
C         -0.37172       -1.34707       -4.53473
H          1.97435        0.79332       -4.10787
H          0.92958        1.33738       -5.42200
H          1.85584        2.50832       -4.48333
H          0.16450       -1.08961       -5.44885
H         -0.91487       -2.27588       -4.71474
H         -1.11104       -0.56824       -4.34527
H         -0.42230       -6.15432       -1.61133
H          0.42111       -5.14407       -0.44075
H         -1.09859       -5.92410        0.00357
H         -2.92324        3.15730        3.36781
H         -4.02329        3.93297        2.22542
H         -4.66101        3.11006        3.65042
H          4.48598       -2.13947        4.27096
H          4.31143       -3.22558        2.89155
H          5.90729       -2.63535        3.34862
H         -0.38149        5.94421        1.38619
H         -1.66631        4.84561        0.87648
H         -0.68129        4.46184        2.28975
