111
-148.55743037
P         -2.55410        2.02394        1.04024
P          0.14234        0.46222        0.47717
C         -1.43329        1.64220        2.41249
C         -0.24214        0.99883        2.15506
C         -3.35990        3.67731        1.24265
C         -2.78894        4.68638        0.27029
C         -1.76959        1.97584        3.70878
H         -2.71150        2.46059        3.90704
C         -0.90353        1.67055        4.74473
H         -1.16514        1.93028        5.75751
C          0.29323        1.03112        4.48309
H          0.96626        0.79204        5.28996
C          0.62318        0.69016        3.18368
H          1.54604        0.17696        2.96314
Pd        -1.35581        1.59421       -0.88184
Cl        -3.12535        2.31060       -2.05773
Cl         0.03170        1.25868       -2.61374
C         -4.85324        3.36067        1.03616
C         -4.04698        0.93193        0.98899
H         -2.94174        4.36068       -0.75982
H         -3.26632        5.66278        0.38157
H         -1.71378        4.81481        0.41694
H         -5.10837        3.54006       -0.01738
H         -5.47741        4.05896        1.61423
H         -4.16598        0.62956       -0.06017
C         -5.18360        1.88523        1.40203
C         -3.88013       -0.27938        1.88068
H         -3.17426        3.99043        2.27795
H         -5.33849        1.80209        2.48661
H         -6.13313        1.56986        0.94329
H         -3.69454        0.02171        2.91331
H         -4.77366       -0.90786        1.87283
H         -3.03435       -0.89119        1.56026
C         -1.20556       -3.83621       -0.18233
C         -1.05873       -3.34693        1.14128
C         -0.63695       -2.03962        1.31516
C         -0.42836       -1.21786        0.23944
C         -0.65918       -1.65705       -1.03648
C         -1.09483       -2.94698       -1.28190
O         -1.42446       -5.22145       -0.40667
C         -1.31123       -4.22285        2.37810
H         -0.45344       -1.64591        2.29914
H         -0.48362       -0.96737       -1.84407
C         -1.41809       -3.35757       -2.72657
C          4.56470        0.61602       -0.58512
C          4.01283       -0.55005        0.00888
C          2.66010       -0.55391        0.30489
C          1.88767        0.56105        0.10794
C          2.44193        1.72972       -0.34257
C          3.78788        1.80307       -0.66359
O          5.85620        0.57053       -1.17013
C          4.82292       -1.81226        0.34977
H          2.18653       -1.44542        0.68098
H          1.80175        2.58719       -0.46410
C          4.35047        3.16932       -1.09054
C         -1.75781       -3.36035        3.58077
C         -2.43578       -5.24047        2.11434
C         -0.01295       -4.95241        2.75532
C         -2.51516       -4.43659       -2.76630
C         -1.95061       -2.14590       -3.52685
C         -0.14036       -3.87249       -3.40616
C         -0.23089       -5.97327       -0.58785
H         -2.61362       -2.73979        3.31737
H         -2.04929       -3.99056        4.42069
H         -0.95727       -2.71111        3.93223
H         -2.65874       -5.81927        3.01031
H         -3.34773       -4.73205        1.80299
H         -2.16037       -5.94151        1.33028
H          0.32780       -5.59413        1.94643
H          0.78209       -4.23822        2.96902
H         -0.15640       -5.57306        3.63944
H         -3.41056       -4.09181       -2.25014
H         -2.78789       -4.68061       -3.79271
H         -2.18706       -5.35491       -2.28610
H         -2.78143       -1.67150       -3.00516
H         -1.17752       -1.39655       -3.68937
H         -2.30554       -2.45634       -4.50917
H          0.26136       -4.73892       -2.88610
H         -0.33601       -4.15982       -4.43889
H          0.63041       -3.10204       -3.41022
H         -0.23380       -6.43430       -1.57534
H          0.64379       -5.32888       -0.49001
H         -0.18314       -6.76681        0.15777
C          5.82888        0.16848       -2.52974
C          4.46313       -2.93283       -0.64041
C          6.34045       -1.56142        0.31690
C          4.47313       -2.27451        1.78206
C          5.88830        3.20695       -1.05857
C          3.85635        3.50211       -2.50833
C          3.85369        4.25822       -0.11390
H          3.39738       -3.15734       -0.60456
H          4.70751       -2.64897       -1.66216
H          5.00670       -3.84799       -0.40705
H          6.89118       -2.43891        0.65499
H          6.68041       -1.32783       -0.68914
H          6.60536       -0.72408        0.96154
H          3.43311       -2.58580        1.86535
H          5.08964       -3.12309        2.07762
H          4.64288       -1.47039        2.49755
H          6.31488        2.53519       -1.79957
H          6.26130        4.20892       -1.26948
H          6.25982        2.90429       -0.08018
H          4.21492        4.48063       -2.82651
H          4.20562        2.76607       -3.22968
H          2.76759        3.51353       -2.54849
H          4.12044        4.00506        0.91181
H          2.77317        4.38239       -0.16070
H          4.30086        5.22378       -0.34891
H          5.21979        0.85836       -3.11135
H          6.84530        0.16387       -2.92397
H          5.40472       -0.83041       -2.61621
