171
-217.84500529
P         -1.57634        0.36405       -0.34381
P          1.60299       -0.42756       -0.36795
C         -0.88226        1.29716       -1.70937
C          0.87960       -1.40771       -1.68802
C         -0.12112        0.65945       -2.68159
C          0.46220        1.43626       -3.70042
C          0.23378        2.80241       -3.72584
C         -0.54495        3.41128       -2.76454
C         -1.09613        2.65293       -1.75042
C          1.08621       -2.76575       -1.67194
C          0.47847       -3.57312       -2.61278
C         -0.35226       -3.01047       -3.55832
C         -0.57276       -1.64364       -3.59378
C          0.06977       -0.81680       -2.65162
Cl         1.64297        0.32794        2.81716
Cl        -1.51457       -0.41353        2.90575
C         -1.50131       -1.08601       -4.61541
C          1.29048        0.80556       -4.76408
H         -0.72323        4.47340       -2.80399
H         -1.69966        3.11914       -0.98832
H          1.72418       -3.19874       -0.91876
H          0.64585       -4.63769       -2.60055
H          0.67233        3.39125       -4.51374
H         -0.84665       -3.63687       -4.28169
C         -3.93626       -3.26593       -1.64521
C         -2.91514       -3.42818       -0.71771
C         -2.19974       -2.30024       -0.33623
C         -2.48634       -1.07778       -0.89008
C         -3.48449       -0.93690       -1.82316
C         -4.23982       -2.03619       -2.21557
H         -4.52651       -4.12147       -1.91698
H         -1.41874       -2.36251        0.40142
H         -3.67335        0.04110       -2.23234
C         -4.26401        2.97220        2.22335
C         -4.84041        1.98739        1.43204
C         -3.99651        1.20753        0.65233
C         -2.64056        1.42309        0.65613
C         -2.08924        2.40689        1.44066
C         -2.89314        3.19287        2.25663
H         -4.90130        3.57870        2.84026
H         -4.39196        0.41437        0.04422
H         -1.02182        2.54211        1.42854
C          4.39284       -2.82145        2.29958
C          3.04731       -3.16771        2.25566
C          2.21959       -2.45377        1.39932
C          2.71727       -1.42386        0.64000
C          4.04659       -1.08869        0.70589
C          4.91397       -1.78010        1.54061
H          5.04878       -3.37031        2.94712
H          1.17018       -2.68781        1.34018
H          4.40907       -0.26927        0.11066
C          3.86581        3.30920       -1.54884
C          2.85522        3.40020       -0.59922
C          2.14945        2.24541       -0.29038
C          2.44665        1.05754       -0.91046
C          3.44785        0.98326       -1.84805
C          4.18950        2.11180       -2.17773
H          4.42483        4.19141       -1.79361
H          1.37357        2.26715        0.45576
H          3.66731        0.03246       -2.30450
Pd         0.01667       -0.03973        1.31019
C         -2.41267       -5.83116       -1.25150
C         -2.63531       -4.81224       -0.11782
C         -3.83846       -5.24186        0.73959
C         -1.37653       -4.79497        0.76957
H         -2.16830       -6.81418       -0.84931
H         -3.30147       -5.93898       -1.87169
H         -1.59193       -5.51682       -1.89511
H         -3.66688       -6.21836        1.19212
H         -4.01525       -4.52405        1.54043
H         -4.74625       -5.30434        0.14033
H         -1.16037       -5.79094        1.15577
H         -0.50927       -4.46090        0.20099
H         -1.50732       -4.13249        1.62472
C         -5.50292       -0.50816       -3.81100
C         -5.42418       -1.91474       -3.18572
C         -6.72869       -2.18271       -2.41353
C         -5.28163       -2.94516       -4.32272
H         -6.32797       -0.44610       -4.52048
H         -5.66925        0.25287       -3.04902
H         -4.58606       -0.26477       -4.34709
H         -6.73231       -3.18382       -1.98351
H         -6.84776       -1.46963       -1.59862
H         -7.59567       -2.09536       -3.06812
H         -6.10111       -2.85216       -5.03525
H         -4.34870       -2.80112       -4.86556
H         -5.29203       -3.96509       -3.94094
C         -6.78296        1.35940        2.88340
C         -6.35963        1.76911        1.46120
C         -6.79199        0.65923        0.48273
C         -7.07205        3.07410        1.06051
H         -7.85630        1.17746        2.93447
H         -6.27022        0.44742        3.18869
H         -6.54081        2.13675        3.60718
H         -7.87325        0.52382        0.50359
H         -6.50988        0.90874       -0.53994
H         -6.33597       -0.29519        0.74540
H         -8.15363        2.94023        1.04970
H         -6.84414        3.88092        1.75597
H         -6.76127        3.39178        0.06536
C         -2.78064        3.98920        4.63424
C         -2.31193        4.26219        3.19236
C         -2.79771        5.64942        2.73754
C         -0.77139        4.24981        3.18072
H         -2.35057        4.71198        5.32733
H         -3.86450        4.05196        4.72057
H         -2.47584        2.99261        4.95325
H         -2.48123        5.85104        1.71419
H         -3.88466        5.71648        2.77085
H         -2.39351        6.43386        3.37713
H         -0.37165        4.98717        3.87665
H         -0.38488        3.27351        3.47324
H         -0.38865        4.49282        2.19137
C          2.07031       -5.46863        2.19026
C          2.45473       -4.29735        3.10989
C          1.20431       -3.78050        3.85005
C          3.45947       -4.80361        4.16307
H          1.61755       -6.28112        2.75826
H          1.35911       -5.15061        1.43001
H          2.94879       -5.86094        1.67827
H          1.45081       -2.91130        4.45940
H          0.41862       -3.48705        3.15595
H          0.79375       -4.54804        4.50569
H          3.00584       -5.56827        4.79356
H          4.33607       -5.24745        3.69189
H          3.78798       -3.99102        4.81087
C          7.04680       -1.71090        0.23537
C          6.39485       -1.37726        1.58825
C          7.15455       -2.12486        2.70109
C          6.50739        0.13612        1.86013
H          6.54725       -1.18750       -0.57824
H          8.09814       -1.42390        0.22542
H          6.98495       -2.77958        0.03080
H          7.15770       -3.19995        2.52303
H          8.19340       -1.79812        2.74643
H          6.70471       -1.93611        3.67571
H          7.55048        0.44039        1.94457
H          6.05754        0.72187        1.05961
H          6.00262        0.39760        2.78989
C          2.63840        4.47220        1.65624
C          2.51926        4.70442        0.13745
C          1.08306        5.12665       -0.21655
C          3.47523        5.84760       -0.25383
H          2.41075        5.38281        2.21001
H          1.95497        3.69578        1.99647
H          3.64923        4.16089        1.91868
H          0.37033        4.34067        0.02771
H          0.79328        6.02689        0.32506
H          0.99800        5.33292       -1.28287
H          4.50879        5.59064       -0.02237
H          3.40386        6.07320       -1.31766
H          3.23094        6.75875        0.29222
C          6.34930        0.92891       -2.65434
C          5.36034        1.99296       -3.16612
C          6.11975        3.32570       -3.31651
C          4.82786        1.57823       -4.54765
H          6.70882        1.18555       -1.65801
H          5.88042       -0.05273       -2.60203
H          7.21284        0.84856       -3.31436
H          5.46918        4.10695       -3.70912
H          6.52292        3.65727       -2.35974
H          6.95618        3.21781       -4.00700
H          4.30780        0.62243       -4.49834
H          4.13372        2.32581       -4.93010
H          5.64193        1.47800       -5.26537
H         -1.71116       -0.03077       -4.43667
H          1.84462       -0.05022       -4.37573
H         -2.45323       -1.61617       -4.59676
H         -1.08403       -1.18449       -5.61855
H          2.01163        1.51435       -5.17128
H          0.66809        0.45886       -5.58964
