111
-148.55267127
P         -2.54841        2.04831        0.79390
P          0.11807        0.38761        0.45501
C         -1.47930        1.76574        2.23130
C         -0.28925        1.09192        2.06432
C         -3.39545        3.69228        0.90357
C         -2.72841        4.74454        0.04527
C         -1.84434        2.21350        3.48523
H         -2.78676        2.71800        3.61932
C         -1.00752        1.99549        4.56614
H         -1.29206        2.34592        5.54487
C          0.18933        1.32740        4.39342
H          0.83956        1.15538        5.23532
C          0.54672        0.86831        3.13867
H          1.46716        0.32543        2.98998
Pd        -1.32470        1.39882       -1.05856
Cl        -2.61603        2.66140       -2.37914
Cl        -0.00737        0.59208       -2.69528
C         -4.84275        3.34795        0.50911
C         -4.02211        0.92845        0.71813
H         -3.22779        5.71155        0.13927
H         -1.67973        4.87521        0.32203
H         -2.75615        4.46452       -1.00756
H         -4.94800        3.46071       -0.57885
H         -5.54474        4.07104        0.95187
H         -4.03623        0.51226       -0.29819
C         -5.20798        1.89190        0.91809
C         -3.92346       -0.17503        1.74874
H         -3.35700        3.98796        1.95942
H         -5.50353        1.87345        1.97603
H         -6.08798        1.53707        0.36060
H         -3.84398        0.24071        2.75498
H         -4.80161       -0.82450        1.72494
H         -3.04016       -0.79461        1.57988
C         -1.19272       -3.98248        0.35954
C         -1.04542       -3.31860        1.60661
C         -0.62005       -2.00058        1.60091
C         -0.42524       -1.32265        0.42581
C         -0.69308       -1.92319       -0.77557
C         -1.11690       -3.23762       -0.84680
O         -1.33091       -5.39358        0.31525
C         -1.34327       -3.97237        2.96665
H         -0.43285       -1.48654        2.52743
H         -0.55857       -1.34612       -1.67336
C         -1.49664       -3.79193       -2.22988
C          4.50156        0.79150       -0.71648
C          3.76259       -0.35250       -1.11080
C          2.43284       -0.43303       -0.73521
C          1.85441        0.53175        0.04671
C          2.58972        1.59136        0.51027
C          3.93036        1.72535        0.18633
O          5.79494        1.02258       -1.25575
C          4.35814       -1.47441       -1.97525
H          1.81887       -1.25034       -1.06978
H          2.09644        2.32097        1.12890
C          4.73445        2.88457        0.79618
C         -2.13903       -5.28151        2.82523
C         -0.02039       -4.25213        3.69844
C         -2.20192       -3.01412        3.82196
C         -0.22203       -3.99599       -3.06563
C         -2.26997       -5.11850       -2.13775
C         -2.41671       -2.78037       -2.94961
C         -0.08289       -6.06306        0.24675
H         -3.04822       -5.11796        2.24770
H         -1.55451       -6.04516        2.31758
H         -2.42168       -5.67692        3.80059
H         -0.20271       -4.69775        4.67601
H          0.60617       -4.93644        3.12943
H          0.54358       -3.33209        3.84900
H         -3.12227       -2.75392        3.30026
H         -2.47436       -3.47864        4.76928
H         -1.67314       -2.09121        4.05422
H         -0.46359       -4.37862       -4.05685
H          0.31521       -3.05653       -3.19172
H          0.45253       -4.70386       -2.58738
H         -2.61290       -5.44261       -3.12004
H         -1.64680       -5.91045       -1.72919
H         -3.14044       -5.01159       -1.49142
H         -1.90321       -1.84393       -3.16089
H         -2.76473       -3.18060       -3.90141
H         -3.29092       -2.55439       -2.33969
H          0.51446       -5.83052        1.12693
H         -0.25381       -7.13881        0.20116
H          0.46287       -5.74672       -0.64093
C          5.79160        1.78966       -2.45329
C          5.86206       -1.65225       -1.70010
C          3.67935       -2.82702       -1.65757
C          4.12383       -1.14516       -3.45751
C          4.18842        3.24720        2.19630
C          6.21356        2.49849        0.98005
C          4.61849        4.11843       -0.11127
H          6.03841       -1.84319       -0.64209
H          6.26813       -2.48872       -2.26837
H          6.42423       -0.76386       -1.97640
H          4.18376       -3.64367       -2.17356
H          3.71152       -3.03566       -0.58854
H          2.63906       -2.84233       -1.97833
H          4.52174       -1.92990       -4.10032
H          3.05865       -1.04505       -3.66523
H          4.60275       -0.20864       -3.73329
H          3.19310        3.68537        2.14093
H          4.13971        2.36460        2.83364
H          4.83230        3.97786        2.68535
H          6.69545        2.30619        0.02475
H          6.76838        3.29579        1.47398
H          6.30235        1.59751        1.58614
H          3.57654        4.41675       -0.22462
H          5.01435        3.91651       -1.10367
H          5.16817        4.96224        0.30501
H          6.39207        2.68842       -2.31356
H          6.23257        1.20776       -3.26241
H          4.77228        2.07048       -2.72151
