111
-148.55473900
P         -2.59917        2.12663        0.19302
P          0.05166        0.43089        0.48858
C         -1.82429        1.94783        1.82333
C         -0.64278        1.24801        1.93727
C         -3.36756        3.79828       -0.01500
C         -2.52876        4.69496       -0.89919
C         -2.40783        2.49844        2.94659
H         -3.34283        3.02661        2.85771
C         -1.79738        2.35466        4.18070
H         -2.25198        2.78504        5.05806
C         -0.60876        1.65869        4.29022
H         -0.13499        1.54503        5.25137
C         -0.03187        1.09855        3.16470
H          0.88670        0.53690        3.23433
Pd        -1.04302        1.35157       -1.33079
Cl        -2.39043        2.16293       -2.93042
Cl         0.55145        0.53831       -2.68708
C         -4.76386        3.46243       -0.57034
C         -4.08425        1.04852       -0.04877
H         -2.98557        5.68039       -1.01632
H         -1.52590        4.83177       -0.48773
H         -2.41719        4.26497       -1.89512
H         -4.71958        3.47999       -1.66808
H         -5.48713        4.24351       -0.29051
H         -3.95623        0.57093       -1.02950
C         -5.24420        2.06101       -0.09485
C         -4.19405        0.00820        1.04484
H         -3.45394        4.22754        0.99116
H         -5.68001        2.14527        0.91017
H         -6.05504        1.68520       -0.73721
H         -5.08481       -0.61170        0.91939
H         -3.32284       -0.65019        1.05186
H         -4.25421        0.48248        2.02617
C         -1.33635       -3.90697        0.30789
C         -0.96335       -3.22936       -0.88047
C         -0.52680       -1.92149       -0.77517
C         -0.52093       -1.26689        0.42783
C         -0.98410       -1.88190        1.56107
C         -1.43641       -3.19046        1.52838
O         -1.57354       -5.30712        0.28545
C         -1.00451       -3.88807       -2.26792
H         -0.17622       -1.38691       -1.64032
H         -0.98551       -1.32212        2.47944
C         -2.00185       -3.82185        2.81019
C          4.57859        0.72224        0.10259
C          3.91570       -0.48956       -0.21808
C          2.53851       -0.53487       -0.08800
C          1.83481        0.53450        0.40006
C          2.48037        1.67322        0.80546
C          3.85870        1.78239        0.71209
O          5.95046        0.88985       -0.22432
C          4.65083       -1.73038       -0.74795
H          1.98978       -1.40991       -0.38824
H          1.88662        2.48464        1.18993
C          4.54589        3.05126        1.24082
C         -2.11792       -4.94793       -2.34773
C         -1.30743       -2.83499       -3.35926
C          0.36034       -4.52633       -2.56768
C         -2.63799       -2.74468        3.71837
C         -3.10777       -4.84094        2.48081
C         -0.86546       -4.50585        3.58478
C         -0.40799       -6.09351        0.49858
H         -1.93420       -5.76983       -1.66048
H         -3.08266       -4.50998       -2.09377
H         -2.18911       -5.36698       -3.35111
H         -0.48373       -2.13408       -3.48525
H         -1.46917       -3.31352       -4.32475
H         -2.20427       -2.26745       -3.11228
H          0.36070       -5.00568       -3.54623
H          1.14709       -3.77237       -2.56184
H          0.61655       -5.27762       -1.82429
H         -1.89040       -2.06358        4.12222
H         -3.37535       -2.15983        3.16954
H         -3.14266       -3.20461        4.56771
H         -2.71657       -5.67920        1.90937
H         -3.55489       -5.24192        3.39007
H         -3.89665       -4.37395        1.89202
H         -0.40539       -5.29456        2.99450
H         -0.08772       -3.78720        3.84219
H         -1.23485       -4.94965        4.50895
H         -0.21568       -6.71079       -0.37869
H          0.45430       -5.45283        0.68795
H         -0.56518       -6.75363        1.35151
C          6.17154        1.42955       -1.52142
C          6.07905       -1.81801       -0.18071
C          3.91720       -3.02265       -0.31995
C          4.69045       -1.67465       -2.28278
C          4.60709        4.10109        0.12113
C          3.75542        3.64267        2.43035
C          5.96349        2.74190        1.75580
H          6.57505       -2.73170       -0.50730
H          6.68836       -0.97902       -0.50686
H          6.06001       -1.81296        0.90858
H          2.95015       -3.12072       -0.81046
H          4.49997       -3.90435       -0.58557
H          3.75766       -3.03891        0.75786
H          5.21458       -0.78782       -2.63119
H          5.19580       -2.54852       -2.69308
H          3.68105       -1.64396       -2.69261
H          5.17402        3.73522       -0.73154
H          3.60557        4.34958       -0.22919
H          5.07994        5.01833        0.47119
H          4.30402        4.46524        2.88864
H          2.79026        4.03800        2.11745
H          3.58457        2.88653        3.19625
H          6.61075        2.39679        0.95342
H          5.93345        1.96448        2.51849
H          6.42406        3.62785        2.19221
H          6.74801        0.72370       -2.11907
H          5.22037        1.63183       -2.01556
H          6.74329        2.35388       -1.44018
