111
-148.55134621
P         -2.64517        1.90918        0.49404
P          0.19014        0.48891        0.45677
C         -1.72171        1.67206        2.04399
C         -0.46358        1.11037        2.01269
C         -3.76949        3.37746        0.64935
C         -3.55985        4.38337       -0.46035
C         -2.27283        2.04269        3.25489
H         -3.26663        2.45752        3.28525
C         -1.55592        1.86187        4.42527
H         -1.98702        2.15287        5.36927
C         -0.29150        1.30651        4.38658
H          0.26506        1.16297        5.29807
C          0.25427        0.92281        3.17506
H          1.23077        0.46644        3.12659
Pd        -1.05301        1.56301       -1.16446
Cl        -2.51387        2.47862       -2.59672
Cl         0.42560        0.98741       -2.75241
C         -5.17377        2.73714        0.65328
C         -3.88542        0.57200        0.17636
H         -4.18076        5.27137       -0.32064
H         -2.51692        4.70331       -0.51575
H         -3.82438        3.95025       -1.42551
H         -5.89245        3.42692        0.18723
H         -5.52198        2.60334        1.68801
H         -3.56110        0.04346       -0.73081
C         -5.18552        1.36277       -0.07379
C         -3.96312       -0.38419        1.34682
H         -3.54423        3.84331        1.61775
H         -6.04920        0.76161        0.24616
H         -5.31995        1.52523       -1.15346
H         -4.25935        0.14313        2.25554
H         -4.69289       -1.17787        1.16985
H         -2.99620       -0.85275        1.54018
C         -1.43791       -3.72686       -0.10589
C         -1.06727       -2.95651       -1.23724
C         -0.57071       -1.68331       -1.02528
C         -0.38562       -1.19475        0.24032
C         -0.63000       -1.97862        1.33682
C         -1.11720       -3.26731        1.19752
O         -2.16898       -4.93237       -0.27600
C         -1.24492       -3.45420       -2.67926
H         -0.33006       -1.04023       -1.85321
H         -0.45264       -1.56026        2.31206
C         -1.32403       -4.12512        2.45501
C          4.72417        0.64109        0.09887
C          4.07031       -0.59691        0.32478
C          2.68877       -0.59952        0.41402
C          1.97255        0.56743        0.35789
C          2.60554        1.77724        0.24711
C          3.98622        1.85180        0.15358
O          6.10833        0.66457       -0.21867
C          4.82598       -1.93031        0.43617
H          2.14673       -1.52376        0.51524
H          2.00030        2.66718        0.22218
C          4.65688        3.23244        0.07731
C         -1.08730       -4.98294       -2.76406
C         -2.63149       -3.03346       -3.19003
C         -0.17016       -2.83758       -3.60389
C         -1.15537       -5.62272        2.14085
C         -0.27236       -3.77065        3.53112
C         -2.72417       -3.85847        3.02832
C         -3.58000       -4.75440       -0.26767
H         -1.15020       -5.32677       -3.79619
H         -0.12325       -5.29199       -2.36146
H         -1.86342       -5.49373       -2.19963
H         -3.42283       -3.46035       -2.57828
H         -2.73928       -1.94927       -3.16173
H         -2.78540       -3.36138       -4.21767
H         -0.31464       -1.76604       -3.73307
H          0.82872       -3.00251       -3.20088
H         -0.20958       -3.28637       -4.59607
H         -1.23528       -6.22454        3.04579
H         -1.91610       -5.97078        1.44668
H         -0.18117       -5.81302        1.69168
H         -0.33165       -4.46105        4.37221
H          0.73570       -3.82812        3.12104
H         -0.42361       -2.76852        3.92949
H         -2.83713       -2.80873        3.29812
H         -3.49900       -4.09934        2.30419
H         -2.90032       -4.45649        3.92205
H         -4.01788       -5.33709        0.54259
H         -3.83003       -3.70109       -0.13402
H         -3.99901       -5.10999       -1.20887
C          6.38332        0.57546       -1.61115
C          4.95418       -2.55883       -0.95976
C          6.21922       -1.72877        1.05899
C          4.06182       -2.91537        1.35101
C          3.83079        4.28343        0.85322
C          6.05813        3.20698        0.71477
C          4.75065        3.66982       -1.39235
H          5.47696       -3.51372       -0.91173
H          3.97042       -2.73367       -1.39495
H          5.50358       -1.90850       -1.63614
H          6.13821       -1.24410        2.03135
H          6.72881       -2.68215        1.19640
H          6.84981       -1.10706        0.42843
H          3.12559       -3.24213        0.90066
H          4.65540       -3.81018        1.53692
H          3.83799       -2.45640        2.31370
H          2.87643        4.48439        0.36896
H          3.63582        3.94810        1.87157
H          4.36584        5.23115        0.90964
H          6.00504        2.85315        1.74382
H          6.73042        2.54867        0.17039
H          6.50433        4.20115        0.72036
H          3.75976        3.71910       -1.84320
H          5.34357        2.96909       -1.97512
H          5.21082        4.65378       -1.47867
H          6.99682       -0.30365       -1.80754
H          5.45415        0.50511       -2.17814
H          6.93907        1.45651       -1.93161
