58
-89.86423385
P          1.59885        0.07314        0.69049
C          3.07735        1.07337        0.48616
C          2.98829        2.44147        0.36825
C          4.13850        3.19482        0.21684
C          5.37079        2.57240        0.18740
C          5.45611        1.19948        0.30751
C          4.30380        0.44885        0.45779
H          4.35367       -0.62446        0.54950
H          2.02032        2.91570        0.37335
C          1.92829       -1.62922        0.22156
C          2.04349       -1.91086       -1.12047
C          2.29067       -3.20627       -1.53530
C          2.42891       -4.21060       -0.59777
C          2.32720       -3.92126        0.74901
C          2.07835       -2.62432        1.16046
H          2.00019       -2.38720        2.20879
H          1.94460       -1.10683       -1.83299
C          1.04231        0.24896        2.43414
C          0.14503        1.47022        2.59001
C         -1.33215        1.19548        2.34922
P         -1.77506        0.40768        0.73686
C         -1.54934       -1.38106        0.74495
C         -1.40781       -2.10072        1.90918
C         -1.21595       -3.46886        1.85263
C         -1.17548       -4.11085        0.63102
C         -1.33632       -3.38938       -0.53442
C         -1.52938       -2.02164       -0.47340
H         -1.66044       -1.44215       -1.37411
H         -1.46250       -1.60086        2.86156
C         -3.53889        0.70497        0.52193
C         -4.03724        1.50340       -0.48135
C         -5.39714        1.73136       -0.57512
C         -6.25577        1.15204        0.33760
C         -5.75642        0.34525        1.34061
C         -4.39332        0.12331        1.43223
H         -3.98962       -0.50408        2.21158
H         -3.36247        1.92539       -1.20500
Pd        -0.04007        0.75056       -0.80919
Cl         1.63380        1.31589       -2.20155
Cl        -1.61412        1.26229       -2.31363
H         -1.73482        0.55038        3.13163
H         -1.90819        2.12327        2.39573
H          0.27046        1.90061        3.59611
H          0.48929        2.25408        1.90194
H          0.53336       -0.66009        2.75247
H          1.95313        0.33020        3.03308
H          4.07122        4.26566        0.11659
H          6.41712        0.71260        0.28182
H          2.37535       -3.42919       -2.58611
H          2.43787       -4.70560        1.47966
H         -1.09721       -4.03369        2.76271
H         -1.30671       -3.88791       -1.48924
H         -5.78589        2.35439       -1.36386
H         -6.42556       -0.11007        2.05208
H          6.26709        3.15885        0.06716
H          2.61939       -5.22206       -0.91760
H         -1.01911       -5.17634        0.58721
H         -7.31690        1.32657        0.26474
