111
-148.55039448
P         -2.60074        1.95461       -0.48897
P          0.06224        0.50763        0.40203
C         -1.90594        2.29060        1.14896
C         -0.73493        1.67049        1.52584
C         -3.08845        3.52104       -1.34696
C         -2.28436        3.72175       -2.61297
C         -2.53055        3.16746        2.01246
H         -3.43747        3.66201        1.70521
C         -1.98509        3.40927        3.26147
H         -2.47306        4.09197        3.93782
C         -0.81627        2.77776        3.64140
H         -0.39228        2.96474        4.61427
C         -0.18880        1.90545        2.77010
H          0.72407        1.40485        3.05119
Pd        -1.08501        0.62604       -1.62017
Cl        -2.50950        0.50006       -3.34264
Cl         0.59761       -0.58717       -2.48201
C         -4.60426        3.34502       -1.58419
C         -4.22300        1.06403       -0.48488
H         -2.54953        4.65660       -3.11249
H         -1.21184        3.74171       -2.40451
H         -2.46778        2.90952       -3.31797
H         -4.87673        3.79186       -2.55120
H         -5.16973        3.91119       -0.82965
H         -4.02137        0.03702       -0.81916
C         -5.03395        1.85111       -1.53428
C         -4.85579        1.06697        0.88998
H         -2.89157        4.33730       -0.63860
H         -6.10804        1.76200       -1.31428
H         -4.89388        1.39917       -2.52738
H         -5.79071        0.50166        0.90316
H         -4.18711        0.63581        1.63662
H         -5.08526        2.08596        1.20577
C         -1.23816       -3.77764        1.19859
C          0.00172       -3.53193        0.55510
C          0.37971       -2.21665        0.34326
C         -0.38360       -1.17806        0.80736
C         -1.53146       -1.41044        1.51951
C         -1.96197       -2.70217        1.77543
O         -1.78768       -5.08730        1.20479
C          0.90344       -4.65743        0.02604
H          1.26070       -1.98230       -0.22887
H         -2.09987       -0.56279        1.85961
C         -3.22095       -2.91454        2.63021
C          4.56040        1.19247        0.16194
C          3.71448        1.65977       -0.87587
C          2.34946        1.46433       -0.74677
C          1.83235        0.75423        0.30464
C          2.65557        0.20323        1.25238
C          4.02881        0.37910        1.19489
O          5.93138        1.56346        0.18393
C          4.25042        2.36864       -2.12996
H          1.66625        1.85878       -1.47926
H          2.20567       -0.36939        2.04489
C          4.91828       -0.28028        2.26086
C          2.38997       -4.24464        0.11003
C          0.75079       -5.94086        0.86248
C          0.54986       -4.93582       -1.44284
C         -3.33293       -1.81514        3.71071
C         -4.46227       -2.85402        1.72725
C         -3.17328       -4.26253        3.37286
C         -2.61656       -5.36511        0.08272
H          3.03866       -5.07638       -0.16372
H          2.62272       -3.42230       -0.56452
H          2.64599       -3.94120        1.12424
H          0.95210       -5.73949        1.91410
H         -0.25458       -6.34710        0.78787
H          1.44300       -6.71236        0.52612
H          1.18150       -5.72224       -1.85499
H         -0.48705       -5.24776       -1.54532
H          0.68687       -4.03982       -2.04791
H         -3.51936       -0.83523        3.27626
H         -4.15735       -2.02479        4.39187
H         -2.41799       -1.75789        4.29975
H         -4.43922       -3.63834        0.97411
H         -5.37564       -2.97301        2.30946
H         -4.51500       -1.89850        1.20688
H         -3.17562       -5.09904        2.67872
H         -2.27126       -4.33467        3.97957
H         -4.03470       -4.37836        4.03015
H         -2.20267       -6.20048       -0.48176
H         -3.61345       -5.64375        0.42397
H         -2.68548       -4.48953       -0.56420
C          6.18996        2.79183        0.85206
C          5.65396        1.85542       -2.49994
C          3.33555        2.08616       -3.34432
C          4.28720        3.88434       -1.88441
C          4.26994       -1.57897        2.78969
C          6.28733       -0.67151        1.67486
C          5.10322        0.68896        3.43812
H          6.37907        2.08701       -1.72388
H          5.64314        0.77434       -2.63469
H          6.00603        2.30943       -3.42588
H          3.17588        1.01532       -3.46803
H          2.36391        2.56620       -3.23869
H          3.78173        2.46692       -4.26268
H          4.93722        4.13314       -1.04901
H          4.65235        4.41346       -2.76427
H          3.29127        4.26132       -1.65289
H          4.02151       -2.24701        1.96633
H          4.95115       -2.10838        3.45552
H          3.36225       -1.37663        3.35623
H          6.89271       -1.19915        2.41147
H          6.16241       -1.32173        0.80962
H          6.84747        0.20404        1.35609
H          5.72192        0.24394        4.21700
H          4.14061        0.94849        3.87817
H          5.57972        1.61209        3.11728
H          5.26371        3.21545        1.24228
H          6.88595        2.62087        1.67317
H          6.64900        3.49648        0.15891
