111
-148.55447441
P         -2.58329        2.03739        0.90271
P          0.12814        0.44469        0.48454
C         -1.47644        1.75424        2.31174
C         -0.27627        1.10528        2.11408
C         -3.44400        3.67226        1.00484
C         -2.83693        4.67932        0.05258
C         -1.82910        2.17644        3.57756
H         -2.77718        2.66482        3.73202
C         -0.97125        1.95563        4.64137
H         -1.24583        2.28556        5.63002
C          0.23404        1.31111        4.43876
H          0.90042        1.13717        5.26754
C          0.58047        0.87963        3.17094
H          1.50925        0.35881        2.99756
Pd        -1.29307        1.58468       -0.94814
Cl        -2.91110        2.33777       -2.30226
Cl         0.04674        0.85839       -2.60856
C         -4.90866        3.30321        0.70424
C         -4.03919        0.89751        0.84699
H         -2.91039        4.33128       -0.97860
H         -3.34803        5.64309        0.11147
H         -1.77835        4.84210        0.26880
H         -5.08723        3.42094       -0.37355
H         -5.59224        4.01173        1.19647
H         -4.08584        0.51496       -0.18153
C         -5.22663        1.83919        1.12342
C         -3.89103       -0.23708        1.83711
H         -3.34313        4.01501        2.04232
H         -5.45942        1.80859        2.19676
H         -6.13163        1.47314        0.61512
H         -3.01245       -0.84470        1.61196
H         -3.77247        0.14731        2.85192
H         -4.76537       -0.89202        1.82888
C         -1.21952       -3.89461        0.15074
C         -1.07771       -3.30471        1.43336
C         -0.65645       -1.98743        1.50796
C         -0.45602       -1.24598        0.37356
C         -0.69684       -1.78092       -0.86337
C         -1.11714       -3.08978       -1.01204
O         -1.42130       -5.29539        0.03164
C         -1.33794       -4.08356        2.73204
H         -0.46803       -1.52271        2.45948
H         -0.52969       -1.15532       -1.72202
C         -1.41543       -3.61441       -2.42454
C          4.52510        0.68111       -0.67196
C          3.82603       -0.54811       -0.77664
C          2.48923       -0.57089       -0.41972
C          1.86915        0.54049        0.08769
C          2.56403        1.70487        0.28253
C          3.90648        1.79642       -0.04958
O          5.82877        0.80514       -1.22180
C          4.47392       -1.83748       -1.30513
H          1.90403       -1.46400       -0.55070
H          2.03602        2.54912        0.69137
C          4.65998        3.10511        0.23595
C         -2.45697       -5.12281        2.53764
C         -0.04171       -4.77773        3.17644
C         -1.79851       -3.13192        3.85978
C         -1.96434       -2.47852       -3.31918
C         -0.11758       -4.14879       -3.04953
C         -2.48789       -4.71808       -2.39500
C         -0.21728       -6.04441       -0.07860
H         -2.68722       -5.63077        3.47382
H         -3.36723       -4.64364        2.17861
H         -2.17157       -5.88183        1.81338
H         -0.19210       -5.32854        4.10459
H          0.30790       -5.47930        2.42295
H          0.74959       -4.04681        3.34151
H         -2.65482       -2.53830        3.54158
H         -2.09425       -3.69596        4.74408
H         -1.00408       -2.45282        4.16561
H         -1.20578       -1.72644       -3.53021
H         -2.30086       -2.86986       -4.27883
H         -2.81125       -1.98504       -2.84311
H          0.63356       -3.36135       -3.10875
H          0.30048       -4.95984       -2.45779
H         -0.29455       -4.52278       -4.05756
H         -2.74388       -5.04290       -3.40317
H         -2.14511       -5.59105       -1.84560
H         -3.39625       -4.35684       -1.91397
H         -0.17713       -6.78852        0.71680
H         -0.19553       -6.56691       -1.03471
H          0.64917       -5.38581       -0.00520
C          5.84595        1.21975       -2.58206
C          5.96881       -1.89612       -0.94321
C          3.80781       -3.08244       -0.67354
C          4.29139       -1.90794       -2.82890
C          6.14291        2.83510        0.54966
C          4.53644        4.03782       -0.97843
C          4.06346        3.82053        1.46952
H          6.52421       -1.09096       -1.41746
H          6.10629       -1.80681        0.13388
H          6.41346       -2.83744       -1.26521
H          4.34850       -3.98920       -0.94378
H          3.80034       -3.00892        0.41365
H          2.78176       -3.21014       -1.01573
H          3.23347       -1.89528       -3.09036
H          4.76300       -1.06169       -3.32239
H          4.72870       -2.82051       -3.23312
H          6.65771        2.40432       -0.30543
H          6.66111        3.75597        0.81601
H          6.23828        2.13905        1.38237
H          3.49033        4.25755       -1.19033
H          5.05077        4.98178       -0.80003
H          4.96528        3.58481       -1.86890
H          4.01925        3.14665        2.32477
H          3.05920        4.19312        1.27346
H          4.67299        4.67894        1.75100
H          6.41185        2.14657       -2.67460
H          6.33641        0.46011       -3.19044
H          4.82902        1.37592       -2.94444
