111
-148.54951974
P         -1.76023        2.68578        0.32835
P         -0.48522       -0.19890        0.44241
C         -1.81678        1.74020        1.88001
C         -1.32608        0.45107        1.90073
C         -0.61265        4.12714        0.45297
C          0.50893        4.00156       -0.55611
C         -2.29676        2.30627        3.04412
H         -2.62176        3.33263        3.04322
C         -2.31948        1.56819        4.21473
H         -2.69974        2.01045        5.12111
C         -1.84597        0.27060        4.22618
H         -1.85676       -0.30165        5.13919
C         -1.33414       -0.28486        3.06764
H         -0.91823       -1.28023        3.06935
Pd        -1.20732        1.13599       -1.30029
Cl        -2.35421        2.31050       -2.82540
Cl        -0.48361       -0.45390       -2.71896
C         -1.54063        5.33790        0.21593
C         -3.33081        3.54236       -0.16484
H          1.18820        4.85609       -0.50970
H          1.09717        3.09655       -0.38794
H          0.10842        3.95005       -1.57069
H         -0.98764        6.12324       -0.31971
H         -1.82666        5.78410        1.17979
H         -3.71669        2.99542       -1.03545
C         -2.82505        4.94309       -0.56799
C         -4.37681        3.56512        0.92931
H         -0.21537        4.12506        1.47689
H         -3.62217        5.68374       -0.40692
H         -2.61236        4.96483       -1.64717
H         -4.04743        4.17932        1.76782
H         -5.31799        3.98932        0.57197
H         -4.58173        2.56043        1.30542
C         -0.83503       -4.70101       -0.16562
C          0.37981       -4.03857       -0.47458
C          0.44807       -2.67057       -0.27421
C         -0.60434       -1.97616        0.26224
C         -1.74595       -2.62729        0.65167
C         -1.87366       -3.99864        0.49834
O         -1.02800       -6.05216       -0.55818
C          1.59617       -4.76353       -1.07106
H          1.32850       -2.12173       -0.55623
H         -2.54592       -2.04356        1.07361
C         -3.13582       -4.69613        1.03006
C          3.79727        1.37552        0.49282
C          2.96866        1.53252        1.63574
C          1.69220        0.99709        1.59793
C          1.20818        0.39789        0.46412
C          1.95563        0.37399       -0.68440
C          3.23953        0.88698       -0.71828
O          5.18998        1.62913        0.58259
C          3.39350        2.28807        2.90586
H          1.05573        1.04926        2.46425
H          1.50513       -0.02467       -1.57649
C          3.95595        0.93526       -2.07806
C          2.90978       -4.07276       -0.63806
C          1.67471       -6.22056       -0.58085
C          1.50260       -4.72312       -2.60410
C         -2.83131       -6.14191        1.46339
C         -3.67843       -3.95983        2.27638
C         -4.22020       -4.68720       -0.05771
C         -1.61164       -6.19947       -1.84670
H          3.77530       -4.65396       -0.95536
H          3.01125       -3.08338       -1.08056
H          2.95458       -3.96963        0.44577
H          0.81888       -6.79988       -0.91773
H          2.57244       -6.71198       -0.95516
H          1.69584       -6.25838        0.50774
H          0.60025       -5.21744       -2.95633
H          1.47577       -3.69363       -2.96075
H          2.35902       -5.21759       -3.06169
H         -2.03122       -6.16035        2.20266
H         -3.71027       -6.61289        1.90281
H         -2.51921       -6.75202        0.61951
H         -2.89636       -3.83841        3.02549
H         -4.06889       -2.97472        2.02586
H         -4.49419       -4.52040        2.73232
H         -5.13388       -5.16270        0.29802
H         -4.46287       -3.66628       -0.35145
H         -3.89013       -5.21768       -0.94767
H         -1.81858       -5.22171       -2.28371
H         -0.93174       -6.75045       -2.49624
H         -2.53935       -6.76570       -1.76543
C          5.92785        0.48184        0.96846
C          4.67149        3.11806        2.69470
C          2.27675        3.27532        3.31158
C          3.61909        1.28161        4.04584
C          4.33614       -0.49205       -2.50486
C          3.00613        1.54511       -3.13322
C          5.21783        1.81436       -2.04593
H          4.55683        3.79059        1.84530
H          4.90078        3.71763        3.57534
H          5.52882        2.47798        2.49981
H          2.06029        3.96424        2.49580
H          1.35347        2.76072        3.57252
H          2.57568        3.86502        4.17776
H          4.40918        0.57613        3.79459
H          3.90382        1.79196        4.96558
H          2.71347        0.70979        4.24597
H          4.84559       -0.48797       -3.46806
H          4.99830       -0.95590       -1.77567
H          3.45017       -1.11911       -2.59825
H          2.66131        2.52918       -2.81706
H          3.51165        1.65801       -4.09180
H          2.13044        0.92043       -3.30073
H          4.98134        2.81247       -1.67880
H          5.65474        1.91160       -3.03950
H          5.97670        1.39007       -1.39273
H          6.98804        0.73261        1.00880
H          5.60053        0.14104        1.94974
H          5.77381       -0.32046        0.24799
