105
-153.06252794
Cl         0.05587        2.00330        3.04873
Pd        -0.41653        1.32985        0.94927
P         -1.08183        0.54268       -1.16484
N         -0.55360       -0.92524       -1.98278
C          0.27970       -1.97517       -1.60082
C          0.34448       -2.47080       -0.27434
C          1.23647       -3.52427        0.02341
C          1.27235       -4.07948        1.42875
C          2.45945       -5.01020        1.72587
C          2.70285       -5.98236        0.56892
C          2.99165       -5.21170       -0.72689
C          2.02010       -4.08850       -0.98759
C          1.90297       -3.61351       -2.28711
C          1.04875       -2.58672       -2.58961
H          0.98272       -2.21743       -3.59826
H          2.50635       -4.05616       -3.06153
H          4.00508       -4.79447       -0.69104
H          3.52244       -6.67576        0.80553
H          3.36199       -4.40701        1.88660
H          1.28337       -3.24396        2.13711
C         -0.66243       -2.06772        0.73934
C         -0.24093       -1.47160        1.95989
C         -1.17432       -1.32794        2.99038
C         -2.46839       -1.75008        2.83521
C         -2.90001       -2.33613        1.65178
C         -4.32476       -2.83222        1.58827
C         -4.61466       -3.77407        0.40959
C         -3.94823       -3.26889       -0.87221
C         -2.42695       -3.15543       -0.69088
C         -2.00257       -2.47846        0.59043
H         -1.97271       -4.15273       -0.72431
H         -4.35789       -2.28477       -1.13097
H         -5.69747       -3.89407        0.26273
H         -4.99568       -1.96772        1.54378
H         -3.17041       -1.63235        3.64335
H         -0.86403       -0.86295        3.90964
N          1.06605       -0.99846        2.15613
P          1.66073        0.23608        1.04831
C          2.61761       -0.29721       -0.35743
C          2.41644        0.33437       -1.55980
C          3.19195       -0.01140       -2.65131
C          4.18309       -0.97724       -2.53416
C          4.37732       -1.59251       -1.30398
C          3.59918       -1.24710       -0.21356
H          3.74674       -1.71542        0.74670
H          5.13764       -2.34842       -1.20692
C          4.98942       -1.38271       -3.71806
H          3.02714        0.46419       -3.60285
H          1.64496        1.08201       -1.64012
C          2.62355        1.50490        1.87469
C          3.32567        1.20543        3.01735
C          4.06786        2.19047        3.64364
C          4.11826        3.47653        3.12248
C          3.40242        3.75725        1.96641
C          2.66163        2.77113        1.34033
H          2.10717        2.98527        0.43975
H          3.42500        4.75451        1.56138
C          4.89065        4.54580        3.81356
H          4.61142        1.96575        4.54540
H          3.29561        0.20355        3.41401
H          1.22424       -0.58602        3.06651
H         -0.81780       -0.85081       -2.95734
C         -0.66232        1.94170       -2.22163
C         -1.02483        3.21596       -1.85670
C         -0.69543        4.29038       -2.66028
C          0.00909        4.09850       -3.84037
C          0.35761        2.80517       -4.20372
C          0.02262        1.73357       -3.39655
H          0.30884        0.73419       -3.67701
H          0.89409        2.64241       -5.12293
C          0.34718        5.25222       -4.71912
H         -0.98376        5.28742       -2.37401
H         -1.56430        3.36524       -0.93714
C         -2.87557        0.46218       -1.13236
C         -3.53384        0.57075       -2.33474
C         -4.91594        0.51288       -2.37290
C         -5.64766        0.34823       -1.20497
C         -4.96568        0.25244       -0.00048
C         -3.58413        0.29160        0.03205
H         -3.05276        0.20225        0.96598
H         -5.52573        0.15842        0.91397
C         -7.13581        0.31481       -1.23474
H         -5.43447        0.60248       -3.31210
H         -2.96310        0.70549       -3.24053
Cl        -2.27071        2.61451        0.96561
H          2.98613       -5.89560       -1.58535
H          2.30084       -5.55718        2.66602
H          1.81447       -6.61117        0.42906
H          0.33055       -4.60918        1.61482
H         -4.19335       -3.92105       -1.72242
H         -2.00029       -2.60951       -1.53914
H         -4.56281       -3.33266        2.53575
H         -4.23639       -4.77747        0.64260
H          5.09297       -0.55866       -4.42537
H          5.99250       -1.69404       -3.42315
H          4.51759       -2.21668       -4.23954
H          5.27687        5.27575        3.10077
H          4.26139        5.07527        4.53019
H          5.74154        4.13023        4.35516
H         -0.45448        5.44245       -5.43402
H          0.49965        6.16062       -4.13460
H          1.26259        5.06382       -5.28182
H         -7.52794       -0.36302       -0.47509
H         -7.54892        1.30674       -1.04696
H         -7.50406       -0.02564       -2.20351
