111
-148.55930894
P         -2.59560        1.92326        1.03736
P          0.16751        0.47903        0.45457
C         -1.46210        1.56150        2.40476
C         -0.24138        0.97895        2.13960
C         -3.48976        3.52508        1.27982
C         -2.95384        4.59678        0.35578
C         -1.81766        1.85397        3.70588
H         -2.78159        2.29072        3.90964
C         -0.94201        1.56924        4.73956
H         -1.21871        1.79712        5.75600
C          0.28390        0.99125        4.47073
H          0.96448        0.76737        5.27563
C          0.63328        0.69091        3.16650
H          1.57927        0.22432        2.94126
Pd        -1.34824        1.62736       -0.87655
Cl        -3.14376        2.28526       -2.04928
Cl         0.00928        1.27953       -2.62920
C         -4.95982        3.13862        1.02996
C         -4.02750        0.75612        0.93296
H         -3.06854        4.30073       -0.68811
H         -3.48454        5.54222        0.49043
H         -1.89020        4.77604        0.53035
H         -5.20103        3.33573       -0.02371
H         -5.63178        3.78659        1.61307
H         -4.11108        0.47234       -0.12481
C         -5.22060        1.63795        1.34603
C         -3.81338       -0.46468        1.80082
H         -3.34217        3.81071        2.32903
H         -5.39445        1.51533        2.42397
H         -6.14240        1.28794        0.85690
H         -2.93047       -1.02323        1.48399
H         -3.66323       -0.17801        2.84330
H         -4.67188       -1.13909        1.76108
C         -1.21632       -3.80982       -0.22214
C         -0.95436       -3.35587        1.09800
C         -0.51481       -2.05375        1.26787
C         -0.39825       -1.20137        0.20172
C         -0.75193       -1.60293       -1.05840
C         -1.21719       -2.88346       -1.29898
O         -1.39420       -5.19378       -0.47751
C         -1.13079       -4.22320        2.35565
H         -0.24932       -1.69120        2.24584
H         -0.65164       -0.89543       -1.86378
C         -1.73612       -3.20081       -2.71126
C          4.61486        0.64715       -0.49769
C          4.06845       -0.48312        0.16236
C          2.70768       -0.49625        0.41868
C          1.91944        0.58333        0.11614
C          2.46080        1.72104       -0.42098
C          3.81331        1.79812       -0.71135
O          5.95154        0.61208       -0.97676
C          4.91367       -1.70046        0.56919
H          2.23683       -1.36479        0.84647
H          1.80216        2.54512       -0.63417
C          4.37769        3.10235       -1.29607
C         -1.88936       -3.42035        3.43594
C         -1.95479       -5.49316        2.08150
C          0.25348       -4.61517        2.89871
C         -2.67216       -2.06213       -3.17665
C         -0.54879       -3.30468       -3.68241
C         -2.55386       -4.50297       -2.75474
C         -0.17631       -5.85694       -0.77332
H         -2.85255       -3.08076        3.05679
H         -2.07478       -4.03487        4.31652
H         -1.32835       -2.54678        3.76359
H         -2.14892       -6.04213        3.00265
H         -2.91239       -5.23926        1.62823
H         -1.43228       -6.16360        1.40335
H          0.16147       -5.21695        3.80248
H          0.81362       -5.19320        2.16603
H          0.84085       -3.73043        3.14289
H         -3.11921       -2.29641       -4.14226
H         -3.47902       -1.91040       -2.46021
H         -2.14009       -1.11873       -3.28698
H         -0.89233       -3.50336       -4.69722
H          0.02369       -2.37776       -3.69774
H          0.12675       -4.10764       -3.39366
H         -3.36231       -4.47330       -2.02506
H         -2.99067       -4.65989       -3.74069
H         -1.93257       -5.36637       -2.52880
H          0.50620       -5.77933        0.07158
H         -0.37963       -6.90847       -0.97694
H          0.29329       -5.40525       -1.64562
C          6.07993        0.10378       -2.29884
C          6.35158       -1.28345        0.92726
C          4.31800       -2.38320        1.82223
C          4.92614       -2.71816       -0.58158
C          4.27540        3.05466       -2.82830
C          3.57528        4.32169       -0.78775
C          5.84004        3.31868       -0.86624
H          6.86878       -0.86287        0.06862
H          6.34766       -0.53144        1.71559
H          6.93212       -2.13732        1.27566
H          4.98323       -3.16403        2.19020
H          4.17341       -1.66106        2.62542
H          3.36019       -2.85540        1.60841
H          5.35630       -2.28919       -1.48329
H          5.50930       -3.59981       -0.31684
H          3.91320       -3.04220       -0.81981
H          3.23906        2.92723       -3.14048
H          4.65241        3.97467       -3.27416
H          4.84703        2.22462       -3.23615
H          3.51652        4.32087        0.30035
H          4.04997        5.25280       -1.09650
H          2.56229        4.33275       -1.18717
H          6.48891        2.53945       -1.25790
H          5.92589        3.30998        0.21981
H          6.21780        4.27431       -1.22894
H          6.54139        0.85708       -2.93715
H          6.72321       -0.77594       -2.29219
H          5.10150       -0.16339       -2.70013
