111
-148.55691725
P         -1.62585        2.80894        0.16419
P         -0.58264       -0.15613        0.48906
C         -1.55515        2.05418        1.81195
C         -1.17436        0.73539        1.94474
C         -0.42123        4.20427        0.02280
C          0.66358        3.87208       -0.97926
C         -1.86145        2.79955        2.93251
H         -2.12275        3.83955        2.82414
C         -1.81042        2.21330        4.18525
H         -2.05329        2.79363        5.06039
C         -1.44493        0.88730        4.31509
H         -1.40174        0.43141        5.29056
C         -1.11693        0.14935        3.19228
H         -0.80299       -0.87775        3.28228
Pd        -1.43715        1.03811       -1.30411
Cl        -2.13814        2.41231       -2.93269
Cl        -1.17133       -0.75390       -2.63123
C         -1.30568        5.40201       -0.37862
C         -3.20997        3.71238       -0.15934
H          1.36894        4.69859       -1.09312
H          1.22579        2.98590       -0.67845
H          0.23159        3.66546       -1.96057
H         -1.23290        5.54272       -1.46577
H         -0.91601        6.33111        0.06402
H         -3.45594        3.51315       -1.21072
C         -2.79598        5.18502        0.01084
C         -4.33992        3.25450        0.73837
H         -0.00193        4.34886        1.02715
H         -2.95135        5.47980        1.05772
H         -3.45613        5.83831       -0.58007
H         -4.11104        3.44305        1.78755
H         -5.26931        3.78005        0.50757
H         -4.52096        2.18264        0.63043
C         -0.71981       -4.69700        0.80598
C          0.17261       -3.95434        1.62090
C          0.19584       -2.57616        1.48060
C         -0.68332       -1.93510        0.64692
C         -1.62074       -2.64035       -0.06046
C         -1.68674       -4.02158        0.01844
O         -0.61905       -6.11258        0.74705
C          1.12833       -4.61686        2.62587
H          0.92030       -1.98125        2.01049
H         -2.28275       -2.09392       -0.70918
C         -2.75994       -4.76486       -0.79203
C          3.65129        1.26958       -0.39255
C          2.97413        0.44181       -1.32410
C          1.69208        0.02217       -1.01549
C          1.11358        0.33586        0.18508
C          1.79665        1.05786        1.12732
C          3.08385        1.50727        0.88591
O          4.87704        1.89013       -0.75355
C          3.57591        0.04528       -2.68045
H          1.09787       -0.51686       -1.73291
H          1.29951        1.28626        2.05342
C          3.81943        2.28155        1.99022
C          0.52516       -5.91326        3.19682
C          2.46789       -4.91364        1.93500
C          1.38950       -3.67856        3.82657
C         -2.20301       -5.09209       -2.18606
C         -3.20194       -6.05530       -0.07848
C         -4.02229       -3.88918       -0.96144
C          0.29070       -6.58793       -0.23753
H          1.17461       -6.34603        3.95735
H         -0.44535       -5.71687        3.65129
H          0.38396       -6.66157        2.42121
H          3.17174       -5.37254        2.62889
H          2.33680       -5.58960        1.09345
H          2.91717       -3.99606        1.55570
H          1.96251       -4.19015        4.59960
H          1.96111       -2.79858        3.53554
H          0.45103       -3.34713        4.27031
H         -1.32398       -5.72854       -2.12023
H         -2.94700       -5.60687       -2.79334
H         -1.91301       -4.18014       -2.70757
H         -4.00710       -6.54799       -0.62295
H         -2.38156       -6.76351        0.00597
H         -3.55769       -5.83484        0.92739
H         -4.82876       -4.45875       -1.42270
H         -4.37674       -3.52875        0.00385
H         -3.83314       -3.02901       -1.60189
H          1.07472       -7.17497        0.24042
H         -0.23596       -7.23311       -0.94054
H          0.73893       -5.75221       -0.77643
C          4.72756        3.16646       -1.36380
C          3.02066       -1.32145       -3.14360
C          3.20080        1.10480       -3.72815
C          5.10551       -0.09984       -2.59006
C          3.35950        1.80665        3.38779
C          5.33900        2.04713        1.91554
C          3.50442        3.77923        1.85516
H          3.54020       -1.66743       -4.03683
H          3.14982       -2.07549       -2.36762
H          1.96222       -1.26373       -3.39295
H          3.59879        0.84316       -4.70815
H          2.11795        1.19241       -3.81576
H          3.59016        2.08326       -3.45764
H          5.37716       -0.82234       -1.82118
H          5.52349       -0.43910       -3.53752
H          5.58073        0.84545       -2.34108
H          3.97015        2.25759        4.16969
H          2.32631        2.08574        3.58953
H          3.44685        0.72411        3.47743
H          5.85326        2.54477        2.73735
H          5.56574        0.98280        1.96817
H          5.75526        2.43061        0.98753
H          3.81991        4.16380        0.88834
H          4.01056        4.35607        2.62876
H          2.43338        3.95706        1.94844
H          5.18079        3.15373       -2.35489
H          3.67245        3.42661       -1.45089
H          5.23931        3.92060       -0.76622
