111
-148.55407697
P         -2.62378        2.16212        0.54389
P          0.06448        0.49895        0.39875
C         -1.53581        2.07842        1.99388
C         -0.34268        1.39418        1.90762
C         -3.42569        3.82411        0.39345
C         -2.79475        4.65259       -0.70434
C         -1.89539        2.68497        3.18059
H         -2.83847        3.20152        3.25120
C         -1.05118        2.61130        4.27528
H         -1.33134        3.08467        5.20214
C          0.14774        1.93048        4.18286
H          0.80335        1.87123        5.03599
C          0.50143        1.31551        2.99525
H          1.42489        0.76418        2.90961
Pd        -1.39644        1.27993       -1.20795
Cl        -3.07942        1.97798       -2.52103
Cl        -0.13132        0.40789       -2.84313
C         -4.90659        3.46766        0.16778
C         -4.12186        1.08384        0.67738
H         -3.26877        5.63339       -0.78689
H         -1.72805        4.80468       -0.52318
H         -2.89438        4.15783       -1.67110
H         -5.09604        3.41918       -0.91344
H         -5.55741        4.27028        0.54685
H         -4.19940        0.55220       -0.28053
C         -5.26965        2.10134        0.81769
C         -3.99549        0.10600        1.82551
H         -3.29890        4.31792        1.36521
H         -5.48283        2.24894        1.88534
H         -6.19654        1.69483        0.38528
H         -4.88891       -0.51526        1.92207
H         -3.13719       -0.55516        1.68740
H         -3.85370        0.63373        2.77046
C         -0.98957       -3.91404        0.77332
C         -1.00526       -3.09543        1.93208
C         -0.67746       -1.75711        1.79454
C         -0.41951       -1.21773        0.56192
C         -0.51254       -1.98041       -0.57138
C         -0.83481       -3.32418       -0.50711
O         -1.08571       -5.32537        0.89974
C         -1.33022       -3.64698        3.32889
H         -0.60360       -1.11759        2.65604
H         -0.31877       -1.50153       -1.51545
C         -0.97606       -4.11708       -1.81517
C          4.46048        0.72296       -0.76137
C          3.59753        1.80359       -1.07883
C          2.27383        1.72966       -0.67565
C          1.78967        0.60875       -0.05465
C          2.59376       -0.48014        0.16024
C          3.92593       -0.47207       -0.21631
O          5.86125        0.84744       -0.96080
C          4.07794        3.04444       -1.84785
H          1.59581        2.54724       -0.85051
H          2.15909       -1.34903        0.62359
C          4.76272       -1.74709       -0.02645
C         -1.96519       -2.55191        4.21613
C         -2.34615       -4.80070        3.24585
C         -0.03429       -4.12938        3.99785
C          0.40012       -4.65984       -2.22942
C         -1.98030       -5.27334       -1.66021
C         -1.50937       -3.20683       -2.94573
C          0.17060       -5.97987        1.02675
H         -1.25627       -1.75931        4.45067
H         -2.82881       -2.10621        3.72378
H         -2.30151       -2.97028        5.16453
H         -2.62640       -5.14859        4.23978
H         -3.25093       -4.47869        2.73132
H         -1.93828       -5.64999        2.70329
H         -0.23114       -4.51494        4.99788
H          0.43659       -4.92075        3.41962
H          0.68129       -3.31209        4.08550
H          0.33340       -5.22570       -3.15823
H          1.10532       -3.84318       -2.38197
H          0.81260       -5.31436       -1.46511
H         -2.12793       -5.79373       -2.60617
H         -1.63552       -6.00438       -0.93338
H         -2.94679       -4.89911       -1.32430
H         -1.73514       -3.78981       -3.83820
H         -2.42309       -2.69989       -2.63674
H         -0.78074       -2.45102       -3.23457
H          0.19225       -6.55091        1.95484
H          0.30882       -6.67309        0.19727
H          0.98166       -5.25045        1.02944
C          6.56168        1.37184        0.15994
C          4.58002        4.09952       -0.85101
C          5.19497        2.68083       -2.84314
C          2.92179        3.65350       -2.67393
C          5.41463       -1.72660        1.36403
C          3.87053       -3.00591       -0.13547
C          5.84208       -1.86647       -1.11752
H          4.91810        4.99656       -1.36917
H          3.78653        4.38647       -0.16139
H          5.41020        3.71964       -0.26030
H          5.48783        3.54604       -3.43734
H          6.08229        2.31969       -2.32913
H          4.86153        1.89836       -3.52399
H          3.28691        4.44872       -3.32340
H          2.45415        2.89588       -3.30235
H          2.15538        4.08966       -2.03508
H          6.00450       -2.62734        1.53196
H          6.07230       -0.86821        1.47818
H          4.65596       -1.66923        2.14429
H          4.47672       -3.91149       -0.13555
H          3.17869       -3.08545        0.70188
H          3.29146       -2.99110       -1.05839
H          6.39462       -2.80083       -1.02203
H          6.55968       -1.05202       -1.05604
H          5.38992       -1.83905       -2.10839
H          7.31160        0.65353        0.49075
H          7.07330        2.29065       -0.12608
H          5.87057        1.57954        0.97782
