58
-89.86696079
P          1.75355        0.56167        0.74596
C          3.32055        1.28695        0.25699
C          3.45964        2.65576        0.23941
C          4.66413        3.21967       -0.14226
C          5.72101        2.40726       -0.50285
C          5.57669        1.03403       -0.48475
C          4.37080        0.47355       -0.10396
H          4.24256       -0.59658       -0.08870
H          2.62068        3.27832        0.50777
C          1.83144       -1.23729        0.64021
C          1.94052       -2.02848        1.76099
C          1.96373       -3.40514        1.63289
C          1.88574       -3.98348        0.38193
C          1.79150       -3.18798       -0.74167
C          1.76735       -1.81176       -0.60931
H          1.69711       -1.17870       -1.47998
H          2.01683       -1.57444        2.73467
C          1.28506        1.15822        2.42826
C         -0.21093        1.16536        2.71587
C         -0.90840       -0.17055        2.46856
P         -1.55903       -0.29357        0.74603
C         -1.62142       -1.98960        0.15794
C         -1.72788       -2.20162       -1.19721
C         -1.76985       -3.49086       -1.69408
C         -1.71090       -4.56174       -0.82441
C         -1.61626       -4.34549        0.53648
C         -1.57362       -3.05382        1.02969
H         -1.50312       -2.87441        2.09004
H         -1.78125       -1.34949       -1.85571
C         -3.18712        0.46026        0.70438
C         -3.32141        1.82888        0.65701
C         -4.58347        2.39454        0.62855
C         -5.70186        1.58472        0.65040
C         -5.56229        0.21174        0.69929
C         -4.29879       -0.35114        0.72652
H         -4.17232       -1.42158        0.76065
H         -2.44100        2.45029        0.62470
Pd        -0.08015        0.81957       -0.65371
Cl         1.27165        2.08047       -1.92467
Cl        -1.85230        0.99431       -2.03127
H         -0.23412       -1.00509        2.65980
H         -1.77389       -0.30632        3.12230
H         -0.37343        1.48552        3.75694
H         -0.69895        1.93667        2.10455
H          1.81598        0.53170        3.14632
H          1.70400        2.16183        2.53322
H          4.77425        4.29145       -0.16293
H          6.40012        0.39963       -0.76897
H          2.04175       -4.02616        2.51017
H          1.72969       -3.63672       -1.71942
H         -1.84805       -3.65752       -2.75577
H         -1.57200       -5.18198        1.21441
H         -4.69231        3.46574        0.58440
H         -6.43461       -0.42079        0.71367
H          6.65896        2.84585       -0.80223
H          1.89790       -5.05661        0.28240
H         -1.74082       -5.56844       -1.20822
H         -6.68536        2.02501        0.62618
