87
-129.17972856
P         -1.73953       -0.37707        0.19292
P          1.49929        0.42325       -0.10933
C         -1.50714        0.92993       -1.04032
C          1.23293       -0.63162       -1.54108
C         -0.64110        0.88413       -2.13057
C         -0.49955        2.03359       -2.93192
C         -1.23942        3.16519       -2.63552
C         -2.09468        3.19236       -1.55619
C         -2.21804        2.07287       -0.75598
C          2.06957       -1.69087       -1.79408
C          1.87386       -2.47108       -2.91671
C          0.83599       -2.18327       -3.77918
C         -0.02150       -1.12187       -3.53932
C          0.18994       -0.31703       -2.40211
Cl         1.35410        1.72217        2.80345
Cl        -1.30650       -0.01909        3.44897
H         -2.65534        4.08429       -1.32946
H         -2.86565        2.08916        0.10835
H          2.88314       -1.90108       -1.12018
H          2.52830       -3.30370       -3.11615
H         -1.12785        4.03865       -3.25543
H          0.67942       -2.79165       -4.65372
C         -0.34086       -4.62707       -0.62323
C         -1.11357       -3.98198       -1.57857
C         -1.53739       -2.68231       -1.32376
C         -1.18832       -2.05306       -0.15230
C         -0.46047       -2.71752        0.80795
C         -0.02200       -4.00531        0.56748
H         -0.00152       -5.63051       -0.81644
C         -1.46671       -4.66949       -2.85048
H         -2.13508       -2.15754       -2.04940
H         -0.27562       -2.23996        1.75724
H          0.55436       -4.52771        1.31346
C         -6.20224       -0.58885        1.06232
C         -5.73944       -0.64620       -0.23766
C         -4.38156       -0.57687       -0.49031
C         -3.49958       -0.45238        0.55810
C         -3.96018       -0.39579        1.85136
C         -5.31995       -0.45506        2.12520
H         -7.25853       -0.64862        1.26246
H         -6.43474       -0.74597       -1.05499
H         -4.00438       -0.61483       -1.50033
H         -3.25405       -0.30108        2.65669
C         -5.81302       -0.41741        3.52906
C          4.89901       -1.28718        2.39678
C          4.99559       -0.00455        1.89408
C          3.97024        0.51425        1.12616
C          2.85760       -0.25103        0.86773
C          2.75889       -1.52716        1.37005
C          3.78183       -2.06912        2.13709
H          5.69353       -1.69058        3.00111
H          5.86642        0.59436        2.10472
H          4.02739        1.51744        0.73632
H          1.88178       -2.11354        1.16067
C          3.65351       -3.44441        2.69115
C          2.61653        4.55395       -1.63992
C          1.73615        4.44001       -0.58216
C          1.40034        3.19081       -0.09675
C          1.94383        2.06806       -0.67481
C          2.82705        2.17719       -1.72381
C          3.17140        3.42610       -2.22882
H          2.88310        5.52649       -2.01725
H          1.31309        5.32342       -0.13279
H          0.72590        3.08715        0.73707
H          3.24255        1.28450       -2.16222
C          4.13547        3.54929       -3.35572
Pd        -0.07117        0.43542        1.63945
C          0.43893        2.06967       -4.08855
C         -1.14131       -0.85410       -4.48324
H          1.16704        1.25948       -4.04003
H         -0.10209        1.98283       -5.03150
H          0.99546        3.00775       -4.10710
H         -1.87127       -0.16817       -4.05167
H         -0.77169       -0.41461       -5.41047
H         -1.66645       -1.77609       -4.73648
H         -1.97110       -5.61650       -2.65336
H         -2.13280       -4.05857       -3.46116
H         -0.57247       -4.87990       -3.43879
H         -5.91221       -1.42643        3.93154
H         -5.12599        0.13469        4.17205
H         -6.78780        0.06844        3.59117
H          2.96335       -3.45748        3.53590
H          3.27460       -4.13486        1.93611
H          4.61551       -3.82536        3.03657
H          3.89725        4.40810       -3.98497
H          5.15277        3.67602       -2.98283
H          4.11715        2.66053       -3.98831
