171
-217.83606140
P         -1.68126        0.62361        0.29502
P          1.46196       -0.18212       -0.30673
C         -1.00501        1.74799       -0.95012
C          0.56266       -0.92480       -1.68775
C         -0.37428        1.33525       -2.11773
C          0.21033        2.30588       -2.95305
C          0.11441        3.64332       -2.60799
C         -0.52233        4.03581       -1.45028
C         -1.07173        3.08033       -0.61716
C          0.68675       -2.26098       -1.98288
C         -0.01606       -2.81000       -3.03724
C         -0.85843       -2.01634       -3.78721
C         -1.01406       -0.67051       -3.49826
C         -0.27138       -0.10920       -2.44195
Cl         2.19058        1.37792        2.50036
Cl        -0.84050        0.82160        3.50447
C         -1.94631        0.16674       -4.30327
C          0.96070        1.93096       -4.18344
H         -0.58103        5.07984       -1.18941
H         -1.54907        3.36973        0.30753
H          1.31663       -2.88579       -1.37452
H          0.08621       -3.85769       -3.26826
H          0.55856        4.38057       -3.25539
H         -1.40865       -2.44358       -4.60827
C         -2.71150       -3.69039       -0.66278
C         -3.47493       -2.66452       -1.20500
C         -3.09898       -1.35976       -0.91764
C         -2.01593       -1.09878       -0.11488
C         -1.28283       -2.12817        0.43009
C         -1.61128       -3.44991        0.15103
H         -2.98681       -4.70919       -0.86004
H         -3.67597       -0.53719       -1.30302
H         -0.44893       -1.89557        1.06706
C         -5.70470        2.30856        1.52977
C         -5.37239        2.24570        0.18187
C         -4.11751        1.75322       -0.15561
C         -3.24754        1.33149        0.82010
C         -3.59522        1.39935        2.14415
C         -4.83220        1.89437        2.52958
H         -6.67038        2.69262        1.79978
H         -3.80473        1.69678       -1.18455
H         -2.88487        1.07605        2.88292
C          4.13114       -3.34205        1.62879
C          3.33419       -2.56097        2.45594
C          2.50998       -1.61719        1.86037
C          2.49418       -1.43912        0.49693
C          3.31955       -2.19930       -0.29602
C          4.13722       -3.18039        0.24899
H          4.77013       -4.08272        2.06937
H          1.89979       -0.99437        2.48665
H          3.33001       -2.03038       -1.35871
C          4.25571        2.94161       -2.03099
C          3.47674        3.28567       -0.93373
C          2.63349        2.31671       -0.40758
C          2.57367        1.06428       -0.96403
C          3.33522        0.74854       -2.06252
C          4.19543        1.68594       -2.62233
H          4.93780        3.67072       -2.42714
H          2.02040        2.53166        0.44827
H          3.23701       -0.23134       -2.49509
Pd         0.27320        0.66721        1.56911
C         -4.96453       -4.41952       -2.29249
C         -4.74421       -2.91738       -2.03123
C         -4.63060       -2.20099       -3.38845
C         -5.95798       -2.36620       -1.25985
H         -5.09955       -4.96559       -1.35908
H         -5.85638       -4.57973       -2.89826
H         -4.11886       -4.85121       -2.82772
H         -3.76554       -2.56414       -3.94170
H         -5.51721       -2.37642       -3.99752
H         -4.52472       -1.12463       -3.26060
H         -5.86120       -1.29474       -1.08748
H         -6.88214       -2.53416       -1.81250
H         -6.05053       -2.85265       -0.28905
C          0.39311       -4.17390        1.53841
C         -0.84296       -4.63772        0.75001
C         -0.36854       -5.57689       -0.37525
C         -1.77365       -5.40396        1.70715
H          0.10702       -3.52441        2.36458
H          0.93149       -5.02513        1.95479
H          1.08305       -3.63236        0.89399
H          0.18955       -6.41976        0.03214
H         -1.20741       -5.97790       -0.94229
H          0.28404       -5.04932       -1.06930
H         -2.64603       -5.79218        1.18258
H         -1.25543       -6.24657        2.16463
H         -2.12627       -4.75053        2.50498
C         -5.82683        2.51086       -2.30827
C         -6.38034        2.70294       -0.88199
C         -6.69366        4.19581       -0.67543
C         -7.67259        1.87583       -0.74889
H         -4.92098        3.09744       -2.46066
H         -5.59747        1.46308       -2.50222
H         -6.55560        2.83182       -3.05243
H         -5.78471        4.79285       -0.74745
H         -7.39470        4.55536       -1.42849
H         -7.13507        4.37551        0.30419
H         -8.40003        2.16437       -1.50745
H         -7.46343        0.81311       -0.86933
H         -8.13584        2.01706        0.22681
C         -4.15722        2.85591        4.74419
C         -5.18183        1.96004        4.02300
C         -5.13432        0.53966        4.61629
C         -6.58961        2.54125        4.25520
H         -3.14821        2.45522        4.65445
H         -4.15721        3.85948        4.31945
H         -4.38937        2.93788        5.80579
H         -4.13944        0.10559        4.52355
H         -5.39610        0.54950        5.67414
H         -5.83496       -0.11660        4.10041
H         -7.35178        1.92636        3.77687
H         -6.81999        2.58236        5.31973
H         -6.66510        3.55501        3.86229
C          1.97519       -2.94287        4.54203
C          3.38260       -2.65159        3.98916
C          3.88495       -1.30771        4.55023
C          4.33128       -3.76822        4.46496
H          1.60574       -3.89841        4.17203
H          1.98817       -2.98984        5.63073
H          1.26506       -2.16886        4.25354
H          3.95366       -1.33875        5.63733
H          4.87235       -1.07070        4.15490
H          3.21447       -0.49219        4.28154
H          4.34519       -3.82564        5.55330
H          4.01318       -4.73976        4.08700
H          5.35275       -3.58421        4.13265
C          5.80500       -5.09820        0.08960
C          5.01109       -4.02900       -0.68512
C          6.00788       -3.11106       -1.41648
C          4.11027       -4.74135       -1.71250
H          5.13573       -5.77241        0.62387
H          6.40691       -5.70086       -0.59050
H          6.48279       -4.63971        0.80940
H          6.64099       -2.58420       -0.70283
H          6.65262       -3.68524       -2.08160
H          5.48989       -2.36428       -2.01658
H          4.69894       -5.37973       -2.37102
H          3.37118       -5.36472       -1.20933
H          3.57532       -4.02600       -2.33604
C          2.60137        4.87131        0.85325
C          3.57882        4.69113       -0.32558
C          3.24082        5.73940       -1.40133
C          5.01177        4.91587        0.18950
H          2.82136        4.16871        1.65673
H          2.67427        5.87707        1.26647
H          1.57046        4.71912        0.53474
H          3.29280        6.74832       -0.99251
H          3.93242        5.68419       -2.24108
H          2.23366        5.58382       -1.78631
H          5.11274        5.90043        0.64581
H          5.27188        4.16791        0.93829
H          5.73830        4.84639       -0.61926
C          4.65892        0.03838       -4.50401
C          5.10927        1.33814       -3.80674
C          6.54318        1.15030       -3.28239
C          5.08589        2.47130       -4.85168
H          5.27444       -0.16365       -5.38050
H          4.74919       -0.82027       -3.83983
H          3.62298        0.11118       -4.83447
H          7.22635        0.89570       -4.09248
H          6.90703        2.06112       -2.80751
H          6.58117        0.35033       -2.54307
H          5.69418        2.21154       -5.71798
H          4.07070        2.65732       -5.20023
H          5.47890        3.40181       -4.44494
H         -2.45827        0.89687       -3.67419
H          1.94568        2.39890       -4.18712
H         -2.70838       -0.44265       -4.79050
H         -1.41059        0.70917       -5.08281
H          0.43193        2.25862       -5.07962
H          1.10979        0.85280       -4.25180
