111
-148.55066342
P         -2.71731        1.90239       -0.45884
P          0.08266        0.61687        0.26327
C         -1.90958        2.31388        1.11575
C         -0.66911        1.78776        1.40391
C         -3.74597        3.32660       -1.04849
C         -3.39033        3.72865       -2.46253
C         -2.53258        3.13854        2.03132
H         -3.51062        3.53484        1.81344
C         -1.90561        3.43841        3.22859
H         -2.39232        4.08229        3.94287
C         -0.65979        2.91174        3.51100
H         -0.17359        3.14257        4.44454
C         -0.04095        2.07870        2.59643
H          0.92340        1.64300        2.80674
Pd        -1.07752        0.86181       -1.72332
Cl        -2.44636        0.93598       -3.49302
Cl         0.64376       -0.12584       -2.77973
C         -5.18806        2.79996       -0.89141
C         -4.01907        0.59779       -0.28956
H         -3.60462        2.91603       -3.15762
H         -3.96489        4.59852       -2.78951
H         -2.32859        3.96943       -2.55287
H         -5.82748        3.24516       -1.66761
H         -5.60830        3.13838        0.06710
H         -3.67195       -0.27481       -0.86015
C         -5.24755        1.24764       -0.95840
C         -4.22906        0.23004        1.16305
H         -3.55127        4.16115       -0.36171
H         -6.16609        0.87346       -0.48311
H         -5.30795        0.93265       -2.01065
H         -4.55342        1.09971        1.73753
H         -4.99056       -0.54546        1.27545
H         -3.30474       -0.13579        1.61494
C         -1.22276       -3.61621        1.32261
C         -0.62844       -3.34613        0.06369
C         -0.26574       -2.04177       -0.22007
C         -0.40612       -1.04759        0.71049
C         -0.87575       -1.32341        1.96744
C         -1.25997       -2.60661        2.31873
O         -1.81263       -4.88361        1.57341
C         -0.40373       -4.42790       -1.00340
H          0.12251       -1.77231       -1.18685
H         -0.94532       -0.51500        2.67353
C         -1.73005       -2.88228        3.75574
C          4.62147        0.90773        0.06230
C          3.82767        1.80613       -0.69631
C          2.44911        1.72198       -0.58423
C          1.86342        0.74542        0.17718
C          2.62385       -0.19137        0.82727
C          4.00656       -0.16278        0.75997
O          6.02649        1.09749        0.14814
C          4.44054        2.86216       -1.62966
H          1.80893        2.41608       -1.10113
H          2.11617       -0.95657        1.38880
C          4.81090       -1.27904        1.44455
C         -0.13940       -5.79999       -0.35779
C         -1.63507       -4.49837       -1.91925
C          0.83427       -4.09065       -1.86619
C         -1.04155       -1.91914        4.74945
C         -3.24937       -2.67412        3.84702
C         -1.36430       -4.31311        4.19078
C         -3.18409       -4.96549        1.20633
H          0.70780       -5.74541        0.32510
H         -1.00113       -6.14564        0.20753
H          0.08208       -6.55278       -1.11392
H         -2.53107       -4.74970       -1.35668
H         -1.80798       -3.53851       -2.40563
H         -1.50191       -5.25122       -2.69564
H          1.07489       -4.91520       -2.53674
H          0.66660       -3.21261       -2.48799
H          1.70513       -3.90452       -1.23831
H         -1.37533       -0.89161        4.61200
H         -1.27242       -2.19494        5.77816
H          0.04129       -1.94794        4.63019
H         -3.51473       -1.64916        3.59027
H         -3.78001       -3.33439        3.16544
H         -3.61011       -2.87168        4.85613
H         -1.87986       -5.05524        3.58622
H         -0.29315       -4.48351        4.08766
H         -1.63732       -4.48850        5.23106
H         -3.53214       -4.00753        0.81763
H         -3.31469       -5.73504        0.44579
H         -3.77865       -5.24296        2.07663
C          6.43367        1.93262        1.22449
C          5.76617        2.36437       -2.23424
C          3.49094        3.15803       -2.81314
C          4.67161        4.16293       -0.84636
C          6.12129       -1.56115        0.68741
C          5.11377       -0.87236        2.89437
C          4.00633       -2.59966        1.45891
H          6.51974        2.21059       -1.46584
H          5.61912        1.41728       -2.75229
H          6.16613        3.08370       -2.94841
H          3.19985        2.23588       -3.31563
H          2.58723        3.67049       -2.48699
H          3.97569        3.80106       -3.54733
H          3.73362        4.53897       -0.43854
H          5.35454        4.00595       -0.01484
H          5.09468        4.93526       -1.48823
H          5.91680       -1.80705       -0.35408
H          6.78180       -0.69774        0.70242
H          6.66034       -2.39624        1.13408
H          5.69905        0.04333        2.93250
H          4.19043       -0.69889        3.44665
H          5.67421       -1.65202        3.40965
H          3.13783       -2.53726        2.11300
H          4.62071       -3.42324        1.82194
H          3.66313       -2.85490        0.45666
H          5.56582        2.27893        1.78716
H          7.09846        1.37783        1.88632
H          6.98039        2.79088        0.83423
