111
-148.55458964
P         -1.67364        2.84058        0.02758
P         -0.50425       -0.09766        0.50867
C         -1.64535        2.12086        1.69598
C         -1.20573        0.82715        1.88968
C         -0.50908        4.27069       -0.08822
C          0.61112        3.96183       -1.05931
C         -2.03815        2.88012        2.77950
H         -2.34474        3.90231        2.62894
C         -2.01448        2.33334        4.05101
H         -2.32561        2.92555        4.89606
C         -1.58735        1.03290        4.23913
H         -1.56389        0.60911        5.22959
C         -1.17149        0.28071        3.15521
H         -0.80249       -0.72435        3.28735
Pd        -1.30285        1.02504       -1.33755
Cl        -2.39960        2.01770       -3.02097
Cl        -0.82078       -0.82496       -2.53008
C         -1.41677        5.44010       -0.52193
C         -3.26783        3.68444       -0.38544
H          0.21050        3.74165       -2.05104
H          1.29913        4.80486       -1.15816
H          1.18740        3.09028       -0.74132
H         -1.30189        5.59055       -1.60410
H         -1.07875        6.37920       -0.05847
H         -3.44946        3.47663       -1.44798
C         -2.91469        5.17099       -0.19865
C         -4.42667        3.18626        0.45141
H         -0.12292        4.43224        0.92668
H         -3.12737        5.46001        0.83972
H         -3.57055        5.80056       -0.81943
H         -4.56375        2.10880        0.33432
H         -4.26033        3.38101        1.51122
H         -5.36050        3.67897        0.17129
C         -0.88666       -4.62691        0.67637
C          0.22003       -3.98916        1.29335
C          0.30459       -2.60842        1.22055
C         -0.69139       -1.86978        0.63673
C         -1.81703       -2.47253        0.14086
C         -1.96257       -3.84976        0.17567
O         -0.89792       -6.03878        0.52211
C          1.34225       -4.76900        1.99612
H          1.16642       -2.08793        1.60198
H         -2.57304       -1.84849       -0.30420
C         -3.25155       -4.47737       -0.37695
C          3.80013        1.23825       -0.12680
C          3.25274        0.20996       -0.93632
C          1.93812       -0.16491       -0.71807
C          1.21147        0.37360        0.30957
C          1.76680        1.29469        1.15844
C          3.07278        1.72263        0.99079
O          5.05541        1.81364       -0.45909
C          4.03731       -0.47008       -2.06828
H          1.44292       -0.85643       -1.37752
H          1.15581        1.69331        1.94876
C          3.66664        2.72496        1.99287
C          1.95254       -3.92987        3.14192
C          0.80725       -6.06666        2.62858
C          2.44979       -5.09050        0.98112
C         -4.45209       -3.52501       -0.17501
C         -3.08145       -4.73792       -1.88149
C         -3.59200       -5.78792        0.35550
C         -0.29680       -6.49276       -0.68432
H          2.65813       -4.52364        3.72262
H          2.49768       -3.06619        2.76410
H          1.17563       -3.57633        3.81933
H          1.59000       -6.58456        3.18226
H         -0.00864       -5.84966        3.31720
H          0.43170       -6.75172        1.87277
H          3.26500       -5.63848        1.45292
H          2.06991       -5.69380        0.16013
H          2.86007       -4.17463        0.55660
H         -4.36854       -2.63351       -0.79469
H         -5.38571       -4.01656       -0.44760
H         -4.52923       -3.21410        0.86652
H         -2.86485       -3.80990       -2.41022
H         -2.26094       -5.42530       -2.07234
H         -3.98717       -5.16735       -2.30878
H         -3.67076       -5.61815        1.42878
H         -4.53956       -6.19729        0.00618
H         -2.82806       -6.54399        0.19305
H          0.05921       -5.64658       -1.27346
H          0.53970       -7.15148       -0.45168
H         -1.02449       -7.05944       -1.26498
C          4.96803        2.91399       -1.35612
C          5.54297       -0.52045       -1.75229
C          3.56776       -1.93213       -2.24916
C          3.79343        0.29038       -3.38059
C          5.17883        2.49745        2.16958
C          3.40070        4.15693        1.50446
C          3.01773        2.55436        3.38547
H          5.96887        0.47729       -1.68503
H          5.71846       -1.02273       -0.80154
H          6.08804       -1.05966       -2.52665
H          4.20366       -2.45764       -2.96117
H          3.60798       -2.47097       -1.30302
H          2.54928       -1.98589       -2.63050
H          4.32816       -0.17597       -4.20755
H          2.73200        0.30057       -3.62760
H          4.12472        1.32339       -3.30528
H          5.71798        2.68023        1.24331
H          5.58974        3.16442        2.92706
H          5.37922        1.47135        2.47605
H          2.33056        4.34400        1.42454
H          3.81882        4.88875        2.19511
H          3.84135        4.32900        0.52561
H          1.97100        2.85537        3.38229
H          3.52504        3.17150        4.12665
H          3.07632        1.51775        3.71630
H          5.51575        2.68667       -2.27044
H          3.92614        3.12503       -1.60023
H          5.42015        3.79403       -0.89895
