111
-148.55018746
P         -2.59480        2.00354       -0.48283
P          0.03921        0.50011        0.41258
C         -1.91860        2.28762        1.17294
C         -0.76155        1.64398        1.55378
C         -3.00603        3.61205       -1.30335
C         -2.16210        3.82995       -2.54013
C         -2.54352        3.15642        2.04452
H         -3.43662        3.67282        1.73288
C         -2.01498        3.36489        3.30660
H         -2.50352        4.04113        3.98899
C         -0.86175        2.70857        3.69125
H         -0.45035        2.86947        4.67414
C         -0.23287        1.84602        2.81146
H          0.66861        1.32892        3.09786
Pd        -1.12371        0.60545       -1.59744
Cl        -2.50173        0.70196       -3.36144
Cl         0.45424       -0.72313       -2.47979
C         -4.52105        3.50049       -1.58191
C         -4.25426        1.18441       -0.52200
H         -2.35996        3.05602       -3.28287
H         -2.37601        4.79450       -3.00666
H         -1.09549        3.79651       -2.30500
H         -4.75018        3.97417       -2.54732
H         -5.08312        4.07654       -0.83236
H         -4.09001        0.15684       -0.87419
C         -5.01193        2.02482       -1.56983
C         -4.91311        1.18688        0.84130
H         -2.79901        4.39608       -0.56215
H         -6.09281        1.97561       -1.37163
H         -4.87142        1.58688       -2.56912
H         -5.86689        0.65407        0.82694
H         -4.27530        0.72173        1.59513
H         -5.11528        2.20782        1.16883
C         -1.20519       -3.81223        1.16087
C          0.10539       -3.53572        0.68898
C          0.46109       -2.21339        0.48306
C         -0.39689       -1.19253        0.79585
C         -1.62343       -1.44826        1.35104
C         -2.03931       -2.74727        1.59537
O         -1.70870       -5.13795        1.12317
C          1.15403       -4.61634        0.37648
H          1.41054       -1.96558        0.03976
H         -2.26452       -0.61450        1.57997
C         -3.37608       -2.95191        2.32849
C          4.54174        1.15657        0.14307
C          3.70645        1.50869       -0.94754
C          2.33969        1.33192       -0.81009
C          1.81039        0.74283        0.30804
C          2.62455        0.29408        1.31597
C          3.99828        0.46336        1.25437
O          5.91509        1.51966        0.13691
C          4.25418        2.07073       -2.26931
H          1.66514        1.64274       -1.58915
H          2.16806       -0.19792        2.15714
C          4.87781       -0.06902        2.39705
C          2.51566       -4.20040        0.97520
C          0.79276       -5.97992        0.99066
C          1.29998       -4.75701       -1.14800
C         -3.45736       -1.98264        3.52901
C         -4.53952       -2.66086        1.36657
C         -3.52008       -4.37586        2.89358
C         -2.35418       -5.44755       -0.10101
H          3.25779       -4.98615        0.83627
H          2.90640       -3.30039        0.50353
H          2.42226       -4.01178        2.04428
H          1.59408       -6.70302        0.84040
H          0.61702       -5.88429        2.06157
H         -0.10791       -6.39014        0.54053
H          2.05798       -5.49799       -1.40035
H          0.36305       -5.06551       -1.60711
H          1.59256       -3.80952       -1.59956
H         -4.36331       -2.15768        4.10874
H         -2.60299       -2.11940        4.19130
H         -3.47281       -0.94180        3.21151
H         -5.49821       -2.74430        1.87783
H         -4.46301       -1.65488        0.95750
H         -4.54518       -3.35701        0.53055
H         -3.57235       -5.11325        2.09609
H         -2.66861       -4.62669        3.52519
H         -4.42683       -4.47173        3.49038
H         -1.64586       -5.38182       -0.92487
H         -2.75454       -6.46030       -0.05038
H         -3.16704       -4.74720       -0.28352
C          6.17580        2.82031        0.64935
C          5.66234        1.52305       -2.56488
C          3.35246        1.64761       -3.45242
C          4.28429        3.60480       -2.19914
C          4.21006       -1.27586        3.09291
C          6.23776       -0.55524        1.86364
C          5.08289        1.04016        3.43984
H          5.65498        0.43363       -2.57552
H          6.02250        1.86945       -3.53324
H          6.37964        1.84354       -1.81373
H          2.37869        2.13321       -3.41272
H          3.80734        1.92184       -4.40389
H          3.19622        0.56916       -3.45394
H          4.66148        4.03065       -3.12857
H          3.28419        4.00213       -2.02729
H          4.92072        3.95074       -1.38825
H          4.88444       -1.72318        3.82283
H          3.30749       -0.98479        3.62827
H          3.94873       -2.04382        2.36661
H          6.09876       -1.31137        1.09161
H          6.80925        0.26238        1.43111
H          6.83858       -0.99117        2.66142
H          5.57836        1.90415        3.00434
H          5.69259        0.68682        4.27104
H          4.12585        1.37365        3.84049
H          5.25271        3.28385        0.99960
H          6.88436        2.75068        1.47461
H          6.62167        3.43949       -0.12869
