105
-153.06672758
Cl         3.64633        0.45802       -0.64474
Pd         1.41475        0.47121       -0.95136
P         -0.90260        0.29087       -1.39422
N         -0.77093       -1.33371       -2.09815
C         -0.00047       -2.34652       -1.51933
C         -0.06891       -2.67223       -0.14041
C          0.81490       -3.62307        0.40356
C          0.70329       -3.98044        1.86566
C          1.98217       -4.60882        2.43801
C          2.46799       -5.74994        1.53868
C          2.75941       -5.24647        0.11486
C          1.75292       -4.25392       -0.41604
C          1.77822       -3.95313       -1.77255
C          0.91755       -3.03407       -2.31560
H          0.97565       -2.79402       -3.36285
H          2.50170       -4.44509       -2.40049
H          3.75044       -4.77769        0.08760
H          3.35489       -6.23429        1.97114
H          2.76370       -3.84150        2.50560
H          0.43163       -3.08926        2.44361
C         -1.09954       -2.05259        0.72573
C         -0.71805       -1.03573        1.63318
C         -1.68527       -0.50658        2.48662
C         -2.96829       -0.99132        2.48293
C         -3.35316       -2.01018        1.61855
C         -4.77416       -2.51071        1.68622
C         -4.99619       -3.85048        0.96680
C         -4.29598       -3.86473       -0.39595
C         -2.78392       -3.63468       -0.24340
C         -2.42018       -2.53276        0.72037
H         -2.29971       -4.56054        0.08898
H         -4.72198       -3.07752       -1.02997
H         -6.06937       -4.06047        0.85460
H         -5.43445       -1.74801        1.25831
H         -3.69911       -0.57822        3.15741
H         -1.40407        0.27277        3.16894
N          0.62868       -0.66678        1.74754
P          1.23097        0.92312        1.34555
C          0.20995        2.27967        1.90235
C         -0.14145        2.36025        3.22853
C         -0.94428        3.40010        3.66231
C         -1.38833        4.36881        2.77201
C         -0.98356        4.29365        1.44607
C         -0.18238        3.25292        1.01386
H          0.12825        3.18901       -0.01481
H         -1.30293        5.05306        0.75289
C         -2.24319        5.49415        3.24080
H         -1.22993        3.46591        4.69826
H          0.22156        1.61521        3.91944
C          2.85743        1.11124        2.06697
C          3.44414        0.04989        2.71263
C          4.70913        0.18905        3.25466
C          5.38906        1.39586        3.15710
C          4.78071        2.45392        2.49455
C          3.51553        2.31227        1.95299
H          3.04010        3.13049        1.43497
H          5.30669        3.38850        2.39977
C          6.76344        1.53908        3.71205
H          5.17768       -0.64187        3.75378
H          2.91029       -0.88283        2.79135
H          1.28907       -1.24618        1.24608
H         -0.58926       -1.17027       -3.08014
C         -0.88832        1.43735       -2.79314
C         -0.12023        2.57873       -2.81991
C         -0.15930        3.41316       -3.92105
C         -0.96641        3.11310       -5.00913
C         -1.74511        1.96574       -4.96172
C         -1.70259        1.13170       -3.85859
H         -2.30974        0.24112       -3.82506
H         -2.38572        1.72874       -5.79395
C         -1.02530        4.02413       -6.18564
H          0.44326        4.30520       -3.94337
H          0.52790        2.81145       -1.99323
C         -2.54507        0.48854       -0.69655
C         -2.80591        1.40744        0.28917
C         -4.09991        1.58753        0.73957
C         -5.14500        0.85215        0.19820
C         -4.86661       -0.05762       -0.81314
C         -3.56827       -0.23861       -1.25587
H         -3.34356       -0.95075       -2.03372
H         -5.67061       -0.62414       -1.25075
C         -6.53787        1.05662        0.68297
H         -4.30557        2.30199        1.51836
H         -1.99747        1.97377        0.71233
Cl         1.78301       -0.07594       -3.10733
H          2.81836       -6.09347       -0.58054
H          1.82216       -4.96010        3.46719
H          1.69800       -6.53074        1.49857
H         -0.13719       -4.67359        1.98976
H         -4.49552       -4.80707       -0.92538
H         -2.33956       -3.40672       -1.22032
H         -5.06940       -2.59292        2.74012
H         -4.60018       -4.66569        1.58543
H         -2.89030        5.85660        2.44070
H         -2.88310        5.18377        4.06810
H         -1.63074        6.32938        3.58334
H          7.51182        1.27503        2.96366
H          6.95413        2.56449        4.03178
H          6.90875        0.89051        4.57709
H         -0.07406        4.53715       -6.33391
H         -1.24893        3.47249       -7.09982
H         -1.79904        4.78121       -6.05111
H         -6.94695        1.99355        0.30252
H         -7.19422        0.24777        0.35888
H         -6.56976        1.09249        1.77293
