105
-153.07189544
Cl         0.00566        1.87625        3.02674
Pd        -0.61918        1.12282        0.99337
P         -1.26371        0.49130       -1.15885
N         -0.95951       -1.07495       -1.89222
C          0.07439       -1.97357       -1.61096
C          0.32341       -2.46872       -0.30305
C          1.35063       -3.41437       -0.10665
C          1.57455       -3.97058        1.27974
C          2.45805       -5.22672        1.32992
C          3.67858       -5.07527        0.41783
C          3.24221       -4.84777       -1.03711
C          2.11953       -3.85181       -1.18852
C          1.83562       -3.37642       -2.46227
C          0.83177       -2.46823       -2.67283
H          0.62764       -2.10903       -3.66638
H          2.42193       -3.73094       -3.29311
H          4.09505       -4.51307       -1.64156
H          4.28061       -4.22274        0.75628
H          2.76813       -5.44564        2.36150
H          2.02238       -3.18408        1.89783
C         -0.61622       -2.18194        0.80717
C         -0.14269       -1.59145        2.01291
C         -1.02002       -1.49927        3.09845
C         -2.31669       -1.93197        2.99762
C         -2.80045       -2.50242        1.82670
C         -4.23269       -2.98385        1.81386
C         -4.73472       -3.47941        0.44677
C         -3.63793       -4.24269       -0.30051
C         -2.41242       -3.34466       -0.51985
C         -1.94481       -2.64389        0.73183
H         -1.58402       -3.93345       -0.93323
H         -4.01411       -4.63494       -1.25602
H         -5.05339       -2.62389       -0.16120
H         -4.87607       -2.17468        2.18225
H         -2.98053       -1.83388        3.83993
H         -0.67236       -1.04113        4.00772
N          1.13400       -1.02051        2.11990
P          1.55557        0.18448        0.90425
C          2.66006       -0.39386       -0.37518
C          3.72023       -1.20627       -0.05473
C          4.61464       -1.58187       -1.04109
C          4.45788       -1.13143       -2.34558
C          3.38816       -0.29661       -2.64135
C          2.49745        0.07886       -1.65267
H          1.67103        0.73358       -1.86771
H          3.25346        0.05375       -3.65031
C          5.39265       -1.57332       -3.41664
H          5.43982       -2.23103       -0.80315
H          3.84194       -1.54057        0.96325
C          2.39952        1.61010        1.59977
C          3.19231        1.48232        2.71462
C          3.84461        2.59187        3.22103
C          3.70559        3.83279        2.61330
C          2.91744        3.93491        1.47482
C          2.26647        2.82487        0.96869
H          1.65009        2.90149        0.08621
H          2.81486        4.88942        0.98751
C          4.42289        5.02339        3.14742
H          4.46719        2.50007        4.09458
H          3.30406        0.51726        3.18144
H          1.32326       -0.56820        3.00495
H         -1.24245       -0.96947       -2.85803
C         -0.53329        1.82335       -2.11357
C          0.06188        1.57715       -3.32819
C          0.65880        2.61278       -4.02325
C          0.65008        3.90411       -3.51284
C          0.03340        4.13532       -2.29073
C         -0.56293        3.09820       -1.59881
H         -1.06460        3.27499       -0.66025
H          0.02379        5.13212       -1.88397
C          1.32419        5.01321       -4.24281
H          1.14308        2.42192       -4.96573
H          0.07982        0.57331       -3.71877
C         -3.04605        0.69508       -1.19966
C         -3.82259        0.03352       -0.28132
C         -5.19604        0.19324       -0.29618
C         -5.80159        1.00531       -1.24482
C         -4.99991        1.66666       -2.16542
C         -3.62593        1.50954       -2.14322
H         -3.00201        2.02526       -2.85531
H         -5.45791        2.31151       -2.89584
C         -7.27776        1.20016       -1.24269
H         -5.80678       -0.30423        0.43759
H         -3.34633       -0.59089        0.45552
Cl        -2.53455        2.28829        1.19132
H          2.92515       -5.79933       -1.48034
H          1.87172       -6.09670        1.00850
H          4.33734       -5.95162        0.49778
H          0.59919       -4.18162        1.73611
H         -3.34339       -5.12251        0.28522
H         -2.64311       -2.58707       -1.27750
H         -4.32926       -3.78937        2.55171
H         -5.63168       -4.10389        0.56352
H          5.03678       -2.49185       -3.88540
H          5.48835       -0.81381       -4.19383
H          6.38909       -1.76421       -3.01575
H          3.86872        5.94062        2.94341
H          4.55520        4.95109        4.22782
H          5.40984        5.11759        2.69247
H          1.31411        4.83976       -5.31979
H          0.82702        5.96625       -4.05678
H          2.36394        5.10852       -3.92680
H         -7.64608        1.43586       -2.24210
H         -7.79264        0.29997       -0.90400
H         -7.55848        2.01869       -0.57856
