111
-148.55474455
P         -2.50567        2.06669       -0.48702
P         -0.01072        0.35494        0.43697
C         -1.90511        2.20508        1.21469
C         -0.80322        1.47617        1.60385
C         -2.79223        3.73750       -1.22786
C         -1.69911        4.10020       -2.20981
C         -2.53912        3.03324        2.11817
H         -3.40058        3.60094        1.80573
C         -2.06687        3.12354        3.41634
H         -2.56186        3.76806        4.12429
C         -0.96308        2.38866        3.80553
H         -0.59677        2.45765        4.81658
C         -0.32904        1.56106        2.89588
H          0.52975        0.97505        3.18383
Pd        -1.04765        0.67121       -1.60598
Cl        -2.27264        1.05659       -3.44745
Cl         0.48924       -0.61763       -2.60899
C         -4.19714        3.60422       -1.84363
C         -4.20516        1.34834       -0.63220
H         -1.65615        3.37816       -3.02665
H         -1.86852        5.08567       -2.64986
H         -0.71864        4.10755       -1.72737
H         -4.09328        3.30229       -2.89495
H         -4.70183        4.58209       -1.86487
H         -4.14628        0.59951       -1.43349
C         -5.05460        2.55038       -1.08595
C         -4.65150        0.71046        0.66547
H         -2.80882        4.44553       -0.38900
H         -5.50987        3.01626       -0.20125
H         -5.89750        2.21062       -1.70673
H         -3.96658       -0.08401        0.96844
H         -4.67681        1.44501        1.47208
H         -5.65233        0.28141        0.57708
C         -1.22481       -3.95923        1.24372
C         -0.10474       -3.69205        0.41529
C          0.23897       -2.37018        0.18414
C         -0.42581       -1.34690        0.80629
C         -1.44484       -1.60404        1.68618
C         -1.84628       -2.90180        1.95613
O         -1.75287       -5.27482        1.33456
C          0.71160       -4.79904       -0.27016
H          1.01443       -2.11724       -0.51774
H         -1.93118       -0.76825        2.15772
C         -2.95850       -3.14907        2.98772
C          4.43252        1.27953        0.06922
C          3.49442        1.91463       -0.78361
C          2.15183        1.62146       -0.61328
C          1.74292        0.67298        0.28737
C          2.65438       -0.02556        1.03585
C          4.01215        0.22981        0.92574
O          5.78192        1.72212        0.09255
C          3.90576        2.91406       -1.87601
H          1.40089        2.13641       -1.18801
H          2.28645       -0.77212        1.71800
C          5.00352       -0.60365        1.75326
C          0.14331       -5.04787       -1.67560
C          2.19178       -4.37589       -0.40204
C          0.69793       -6.10115        0.55138
C         -2.69833       -4.45088        3.76708
C         -3.01337       -2.00232        4.02274
C         -4.31717       -3.22430        2.27474
C         -2.71560       -5.58316        0.33394
H          0.70362       -5.82696       -2.19169
H         -0.89900       -5.35492       -1.63107
H          0.19442       -4.14041       -2.27694
H          2.79580       -5.19582       -0.78988
H          2.31637       -3.53665       -1.08432
H          2.59561       -4.09385        0.56930
H          1.33310       -6.85940        0.09406
H          1.06092       -5.91987        1.56252
H         -0.30366       -6.51527        0.62778
H         -3.45286       -4.60340        4.53836
H         -2.71998       -5.31649        3.10911
H         -1.72157       -4.42127        4.24879
H         -3.71140       -2.23911        4.82540
H         -2.03383       -1.83547        4.47011
H         -3.34957       -1.06933        3.57236
H         -5.12550       -3.37076        2.99073
H         -4.51692       -2.30584        1.72440
H         -4.34631       -4.04760        1.56604
H         -3.62324       -5.95743        0.80745
H         -2.94956       -4.69544       -0.25509
H         -2.33069       -6.36221       -0.32343
C          6.02863        2.77435        1.01678
C          2.91571        2.85655       -3.06269
C          3.89754        4.33650       -1.29682
C          5.29868        2.57735       -2.43839
C          5.20290        0.05996        3.12407
C          4.46501       -2.03529        1.96780
C          6.35590       -0.74268        1.02997
H          3.27573        3.45765       -3.89724
H          2.79303        1.83277       -3.41530
H          1.93510        3.24380       -2.79032
H          4.17124        5.06860       -2.05615
H          2.90749        4.59378       -0.92098
H          4.59954        4.43007       -0.47161
H          5.32390        1.55405       -2.81150
H          5.56223        3.24450       -3.25869
H          6.06801        2.67318       -1.67623
H          5.59766        1.06794        3.01932
H          4.25664        0.12878        3.66019
H          5.89817       -0.51226        3.73778
H          3.57650       -2.04528        2.59710
H          4.21764       -2.49666        1.01276
H          5.21124       -2.66046        2.45762
H          6.84791        0.22023        0.91868
H          6.21691       -1.16376        0.03479
H          7.03119       -1.39487        1.58327
H          6.42780        3.63953        0.48764
H          5.10752        3.05420        1.52954
H          6.76805        2.45197        1.74966
