111
-148.56031863
P         -2.49219        2.30882        0.31918
P         -0.04562        0.27992        0.48734
C         -1.69485        1.98466        1.91212
C         -0.63495        1.10684        1.97805
C         -2.88986        4.10131        0.09953
C         -1.94267        4.75063       -0.88591
C         -2.15238        2.60116        3.05888
H         -2.99102        3.27594        3.00237
C         -1.53871        2.34078        4.27210
H         -1.89428        2.82226        5.16839
C         -0.47362        1.46293        4.33559
H          0.00405        1.25952        5.27986
C         -0.02235        0.84153        3.18488
H          0.80611        0.15142        3.21830
Pd        -1.18959        1.27054       -1.26762
Cl        -2.57134        2.06382       -2.84559
Cl         0.15224        0.16196       -2.68466
C         -4.36292        4.07175       -0.34972
C         -4.18624        1.57559        0.19861
H         -2.17826        5.80779       -1.02939
H         -0.90599        4.67579       -0.54845
H         -2.00511        4.26380       -1.86062
H         -4.39552        4.06957       -1.44803
H         -4.87725        4.99445       -0.04059
H         -4.22596        1.06331       -0.77193
C         -5.10210        2.81409        0.19045
C         -4.44570        0.60650        1.33256
H         -2.79944        4.56671        1.08933
H         -5.44787        3.00531        1.21560
H         -6.01237        2.61257       -0.39446
H         -4.38541        1.11418        2.29687
H         -5.43896        0.15787        1.25630
H         -3.70747       -0.19883        1.34359
C         -1.10983       -4.14886        0.45408
C         -0.05669       -3.68126        1.28494
C          0.24900       -2.33013        1.25656
C         -0.49962       -1.45107        0.51764
C         -1.60693       -1.87814       -0.16862
C         -1.96055       -3.21649       -0.19641
O         -1.25704       -5.53801        0.20711
C          0.75093       -4.58148        2.23563
H          1.09209       -1.95009        1.80891
H         -2.19179       -1.15516       -0.70996
C         -3.24589       -3.60489       -0.94624
C          4.40926        0.88830       -0.24039
C          3.75754       -0.26150       -0.75451
C          2.40155       -0.40735       -0.51512
C          1.71484        0.49735        0.25061
C          2.35952        1.55952        0.82888
C          3.71731        1.75919        0.64027
O          5.73948        1.18870       -0.63733
C          4.47979       -1.31785       -1.60499
H          1.85048       -1.22383       -0.94931
H          1.78069        2.24023        1.42864
C          4.40848        2.92398        1.36667
C          2.18145       -4.74451        1.69640
C          0.80843       -3.92351        3.63186
C          0.11067       -5.96848        2.41880
C         -3.71804       -5.02753       -0.59978
C         -4.38712       -2.64206       -0.55053
C         -3.00220       -3.49672       -2.46077
C         -0.47028       -5.98554       -0.88442
H          2.77496       -5.38049        2.35268
H          2.17955       -5.19366        0.70487
H          2.68159       -3.77947        1.62516
H          1.32005       -4.56925        4.34512
H          1.34270       -2.97515        3.61062
H         -0.19633       -3.73509        4.00909
H          0.64149       -6.55003        3.17220
H         -0.92850       -5.87372        2.73184
H          0.12902       -6.53693        1.49206
H         -3.00558       -5.77383       -0.94323
H         -3.83001       -5.14342        0.47767
H         -4.67722       -5.24814       -1.06759
H         -4.52358       -2.63111        0.53042
H         -4.18863       -1.62324       -0.87835
H         -5.32897       -2.94884       -1.00464
H         -2.21449       -4.17539       -2.78187
H         -3.90521       -3.74156       -3.01925
H         -2.70125       -2.48607       -2.73530
H          0.58173       -5.77396       -0.69911
H         -0.60620       -7.06000       -1.00921
H         -0.77435       -5.47604       -1.79729
C          5.82571        2.00592       -1.79812
C          3.82671       -2.70690       -1.42137
C          4.38293       -0.92379       -3.08670
C          5.95413       -1.45859       -1.18545
C          3.71284        3.21276        2.71686
C          5.87713        2.58777        1.68339
C          4.33006        4.18636        0.49492
H          3.76999       -2.96951       -0.36593
H          2.82152       -2.74086       -1.83875
H          4.40822       -3.47773       -1.92658
H          4.87365       -1.66181       -3.72060
H          3.34086       -0.85020       -3.39717
H          4.85019        0.04087       -3.26941
H          6.44714       -2.25206       -1.74656
H          6.50707       -0.53949       -1.36166
H          6.02996       -1.69560       -0.12475
H          3.63683        2.30540        3.31556
H          4.27549        3.94734        3.29255
H          2.71110        3.61632        2.57721
H          6.34755        3.38692        2.25571
H          5.94342        1.66920        2.26545
H          6.45760        2.44903        0.77478
H          4.82912        4.03819       -0.45966
H          4.80036        5.03419        0.99237
H          3.29252        4.44852        0.28904
H          4.82822        2.25924       -2.15951
H          6.37052        2.91992       -1.56232
H          6.37136        1.47667       -2.57910
