111
-148.55526614
P         -1.68180        2.71213        0.46263
P         -0.37699       -0.17016        0.58540
C         -1.29015        1.96145        2.06972
C         -0.78832        0.67780        2.12188
C         -0.60815        4.18234        0.14224
C          0.32679        3.91704       -1.01865
C         -1.46530        2.67725        3.23672
H         -1.82150        3.69328        3.18877
C         -1.16066        2.09466        4.45496
H         -1.30120        2.65208        5.36663
C         -0.67109        0.80331        4.50397
H         -0.42869        0.35249        5.45223
C         -0.47428        0.09559        3.33172
H         -0.06058       -0.90063        3.34784
Pd        -1.58921        0.94964       -1.02643
Cl        -2.67034        2.25993       -2.48967
Cl        -1.38248       -0.85282       -2.35207
C         -1.62210        5.31673       -0.10852
C         -3.35289        3.50796        0.40527
H          0.98451        3.06949       -0.81553
H         -0.23870        3.68033       -1.92223
H          0.95214        4.78633       -1.23530
H         -1.73388        5.45375       -1.19283
H         -1.22848        6.27260        0.26886
H         -3.75261        3.28828       -0.59345
C         -3.01329        5.00533        0.51445
C         -4.29040        2.98129        1.47104
H         -0.04782        4.35906        1.06972
H         -3.01687        5.29471        1.57430
H         -3.80086        5.61140        0.04096
H         -3.90844        3.19030        2.47058
H         -5.27759        3.44289        1.39584
H         -4.41517        1.89921        1.38793
C         -0.60865       -4.71023        0.83240
C         -1.79394       -3.95197        0.63737
C         -1.69164       -2.57033        0.60768
C         -0.47109       -1.95182        0.67744
C          0.68633       -2.68375        0.73756
C          0.65665       -4.06808        0.77335
O         -0.69147       -6.08792        1.16056
C         -3.18217       -4.57722        0.41921
H         -2.57296       -1.95702        0.52043
H          1.62577       -2.15727        0.75141
C          1.99736       -4.81962        0.71272
C          3.60312        1.44024       -0.92733
C          2.86454        0.52482       -1.72020
C          1.66146        0.05275       -1.22505
C          1.23034        0.39271        0.02916
C          1.98489        1.20090        0.83765
C          3.19610        1.71258        0.40413
O          4.72429        2.11517       -1.47960
C          3.31237        0.08471       -3.12196
H          1.01087       -0.55180       -1.83288
H          1.60088        1.44882        1.81135
C          4.01811        2.58953        1.36111
C         -3.10223       -6.07850        0.09184
C         -4.04060       -4.37152        1.67775
C         -3.86882       -3.88992       -0.78231
C          2.72351       -4.68102        2.06056
C          1.81734       -6.31028        0.37678
C          2.87626       -4.20936       -0.40193
C         -0.78185       -6.31466        2.55700
H         -2.71801       -6.64579        0.93637
H         -4.08469       -6.47997       -0.15538
H         -2.44026       -6.25189       -0.75587
H         -5.03961       -4.78413        1.53931
H         -3.59346       -4.85878        2.54221
H         -4.14414       -3.31200        1.90976
H         -3.23748       -3.94569       -1.66864
H         -4.81886       -4.37032       -1.01461
H         -4.07672       -2.83986       -0.58455
H          3.68852       -5.18664        2.03663
H          2.89948       -3.63324        2.30220
H          2.13757       -5.11466        2.86883
H          2.78037       -6.80209        0.24176
H          1.28988       -6.83228        1.17174
H          1.24202       -6.43039       -0.54055
H          3.80080       -4.77369       -0.52102
H          2.34912       -4.22266       -1.35548
H          3.15197       -3.17915       -0.18296
H          0.10004       -5.91790        3.05751
H         -1.66559       -5.82160        2.95889
H         -0.85064       -7.38657        2.74353
C          4.40455        3.34239       -2.12404
C          2.73281        1.05282       -4.16471
C          4.84730        0.04027       -3.22784
C          2.79954       -1.33974       -3.43471
C          3.77742        2.16895        2.82919
C          5.52660        2.43995        1.09356
C          3.59184        4.05662        1.19829
H          3.08300        2.06863       -3.99828
H          3.02052        0.75836       -5.17356
H          1.64418        1.06576       -4.11411
H          5.28390        1.02683       -3.09550
H          5.26527       -0.61465       -2.46402
H          5.16215       -0.33126       -4.20267
H          3.08975       -2.03615       -2.64895
H          1.71557       -1.36690       -3.53425
H          3.21554       -1.70310       -4.37406
H          2.76343        2.39803        3.15391
H          3.94677        1.10034        2.95900
H          4.45414        2.69889        3.49912
H          5.82720        1.39529        1.16644
H          5.79098        2.79404        0.10041
H          6.11100        3.01229        1.81357
H          4.15739        4.70415        1.86778
H          2.53341        4.17748        1.42729
H          3.75136        4.40401        0.18047
H          4.94213        4.15934       -1.64306
H          4.71515        3.29974       -3.16783
H          3.33204        3.53251       -2.07197
