72
-108.39557662
Cl        -2.06422       -0.02412        2.75152
Cl         0.98505       -0.70364        2.81831
P          1.17770       -1.03395       -0.29689
P         -2.21509        0.16713       -0.40522
C         -3.39203       -1.32876       -0.32494
C         -4.29581       -1.20699        0.89965
C         -4.25798       -1.43517       -1.58874
C         -3.12533        1.82012       -0.12750
C         -4.43093        1.83850       -0.91687
C         -1.40673        0.41484       -2.08961
C         -1.36652       -0.80000       -2.99699
C          1.17035        0.29943       -1.52648
C         -0.01604        1.02154       -1.98783
C          0.47505        2.14277       -2.79283
C          1.92045        2.05554       -2.88623
C          2.34950        0.89933       -2.12399
C         -2.54562       -2.58961       -0.18062
H         -3.71164       -1.11172        1.81290
H         -4.96902       -0.35576        0.82764
H         -4.52625       -0.45993       -1.98876
H         -5.18382       -1.97307       -1.37767
C         -3.39713        2.04326        1.35471
H         -4.24939        1.68269       -1.98055
H         -4.92738        2.80433       -0.81009
H         -2.05332        1.15892       -2.56898
H         -0.86767       -1.63296       -2.50989
H         -0.79951       -0.58337       -3.90466
H         -2.35602       -1.12139       -3.31409
H         -0.15407        2.83748       -3.35265
H          2.56891        2.72179       -3.45909
Pd        -0.52381       -0.39812        1.16721
H          3.37593        0.56668       -1.95674
C         -2.23160        2.94991       -0.63693
H         -5.12870        1.07889       -0.57067
H         -3.92876        2.98242        1.51534
H         -4.00202        1.24636        1.78226
H         -2.46410        2.09417        1.91555
H         -2.18211        2.97476       -1.72513
H         -2.60697        3.92182       -0.31174
H         -1.22069        2.83593       -0.25892
H         -4.91660       -2.09802        1.00691
H         -3.75347       -1.99746       -2.37265
H         -1.84946       -2.69655       -1.01012
H         -1.97395       -2.58038        0.74751
H         -3.17749       -3.47926       -0.16510
C          2.85118       -1.14034        0.38249
C          3.28107       -2.13657        1.22296
C          4.61413       -1.86491        1.53147
C          4.94429       -0.71247        0.86185
O          3.87127       -0.25753        0.15119
H          2.68991       -2.96249        1.58346
H          5.25765       -2.44503        2.17252
H          5.90973       -0.22221        0.88441
C          0.75235       -2.65347       -0.95739
C          0.50059       -3.73215       -0.14652
C          0.20755       -4.81121       -0.98201
C          0.29400       -4.34371       -2.27063
O          0.62504       -3.01850       -2.26989
H          0.51693       -3.73118        0.93195
H         -0.03798       -5.81477       -0.67527
H          0.12595       -4.92692       -3.16753
Fe         1.30412        2.19047       -0.91407
C          2.37333        3.81625       -0.33169
C          2.93737        2.58313        0.19017
C          1.95155        1.94876        1.04072
C          0.75608        2.76258        0.99879
C          1.01669        3.92750        0.17157
H          2.88412        4.53732       -0.97432
H          3.95133        2.21402        0.01774
H          2.07419        1.02245        1.60410
H         -0.13988        2.58170        1.59596
H          0.33023        4.75728       -0.01094
