111
-148.55398907
P         -2.54680        2.23544        0.24293
P         -0.02139        0.31755        0.43473
C         -1.71647        1.98420        1.83544
C         -0.60908        1.16870        1.90804
C         -3.14656        3.98170        0.11451
C         -2.69218        4.61801       -1.18044
C         -2.18591        2.60786        2.97410
H         -3.05790        3.23840        2.91532
C         -1.53883        2.41544        4.18260
H         -1.90513        2.90228        5.07167
C         -0.42508        1.60069        4.25049
H          0.07926        1.45094        5.19092
C          0.04030        0.97320        3.10874
H          0.90684        0.33174        3.14449
Pd        -1.17628        1.26796       -1.34496
Cl        -2.61313        1.92042       -2.93050
Cl         0.30942        0.17900       -2.63150
C         -4.67733        3.83062        0.23625
C         -4.15020        1.32196        0.10688
H         -3.02554        5.65574       -1.25680
H         -1.60330        4.60376       -1.27034
H         -3.09997        4.07817       -2.03639
H         -5.17133        4.62940       -0.33611
H         -4.98697        3.98091        1.28094
H         -4.03889        0.61484       -0.72612
C         -5.15955        2.43367       -0.24663
C         -4.46279        0.58206        1.38963
H         -2.73001        4.52655        0.97243
H         -6.14043        2.19055        0.18716
H         -5.31586        2.46125       -1.33513
H         -5.40214        0.02895        1.31523
H         -3.67078       -0.12758        1.64167
H         -4.55587        1.28012        2.22349
C         -1.10411       -4.10917        0.54690
C         -0.09735       -3.60784        1.41084
C          0.21157       -2.25927        1.34529
C         -0.47766       -1.41426        0.51455
C         -1.53129       -1.87385       -0.23204
C         -1.89326       -3.20991       -0.21419
O         -1.29696       -5.51031        0.41654
C          0.68224       -4.50700        2.38318
H          1.01178       -1.85051        1.93765
H         -2.06579       -1.17642       -0.85142
C         -3.09766       -3.66628       -1.05247
C          4.44299        0.97091       -0.19719
C          3.58441        2.08061        0.01275
C          2.23864        1.83702        0.23636
C          1.73248        0.56490        0.17600
C          2.53755       -0.49537       -0.14789
C          3.89314       -0.32468       -0.36912
O          5.85202        1.15005       -0.20460
C          4.09135        3.53140        0.01078
H          1.56103        2.64290        0.46197
H          2.08814       -1.46875       -0.23120
C          4.74534       -1.54149       -0.76158
C          1.93196       -5.05578        1.67805
C          1.13118       -3.70554        3.62634
C         -0.19421       -5.66660        2.89040
C         -2.62030       -4.03157       -2.46628
C         -3.80453       -4.86858       -0.40117
C         -4.14577       -2.53548       -1.16553
C         -0.50482       -6.11127       -0.60033
H          1.66588       -5.64180        0.80173
H          2.57631       -4.24152        1.34846
H          2.50966       -5.69322        2.34691
H          1.56765       -4.36597        4.37532
H          1.88764       -2.96309        3.37629
H          0.28488       -3.19374        4.08390
H         -0.48500       -6.32893        2.07889
H          0.33721       -6.26543        3.62964
H         -1.10419       -5.28570        3.35283
H         -2.14420       -3.17564       -2.94424
H         -1.89506       -4.84121       -2.44100
H         -3.45535       -4.34640       -3.09150
H         -4.69435       -5.15149       -0.96300
H         -3.15267       -5.73750       -0.35904
H         -4.10815       -4.62912        0.61739
H         -4.41422       -2.15591       -0.18018
H         -3.77974       -1.70536       -1.76771
H         -5.05571       -2.89773       -1.64331
H          0.11570       -5.36123       -1.09250
H          0.13187       -6.87953       -0.16191
H         -1.15317       -6.58655       -1.33622
C          6.45653        1.04864        1.07847
C          2.98758        4.49165       -0.48876
C          4.48519        3.93573        1.43927
C          5.29158        3.69847       -0.93906
C          5.29215       -2.20950        0.50913
C          3.89701       -2.57610       -1.53643
C          5.90474       -1.12851       -1.68610
H          3.38074        5.49991       -0.61695
H          2.59328        4.16151       -1.44954
H          2.16075        4.55868        0.21669
H          5.27552        3.29692        1.82615
H          4.83949        4.96578        1.46977
H          3.63220        3.85181        2.11231
H          6.14546        3.11339       -0.60692
H          5.03271        3.36948       -1.94492
H          5.60706        4.74010       -0.99310
H          5.92599       -1.52777        1.07100
H          4.47727       -2.51842        1.16330
H          5.88203       -3.09226        0.26367
H          4.52517       -3.37512       -1.92949
H          3.14826       -3.04376       -0.89893
H          3.38686       -2.10660       -2.37711
H          6.47213       -1.99838       -2.01601
H          6.59518       -0.45769       -1.18076
H          5.52607       -0.61492       -2.56917
H          5.70458        0.82950        1.83758
H          7.20443        0.25594        1.06765
H          6.95755        1.98523        1.32237
