64
-97.21222630
Cl        -1.58565       -1.35771       -2.53108
Cl         1.69623       -1.19140       -2.85180
P          1.97440       -0.61271        0.24657
C          2.18134       -2.29256        0.99941
C          3.76263       -0.17288       -0.01047
P         -1.30109       -0.15953        0.42807
C          1.25662        0.58725        1.42686
C         -0.17391        0.80964        1.49945
C         -0.39945        1.92458        2.40701
C          0.88511        2.36956        2.91579
C          1.91127        1.55416        2.29345
H         -1.37349        2.30510        2.72053
H          1.05012        3.17690        3.63217
Pd         0.18156       -0.92373       -1.22791
H          2.98750        1.63881        2.45552
C         -5.04828        2.06994       -0.92602
C         -4.08111        2.74511       -0.20902
C         -2.94213        2.08065        0.20597
C         -2.76623        0.74971       -0.09982
C         -3.73342        0.07529       -0.80997
C         -4.87660        0.73367       -1.22646
H         -5.93696        2.58587       -1.25135
H         -4.21239        3.78850        0.02678
H         -2.18373        2.60280        0.76137
H         -3.58658       -0.96642       -1.04504
H         -5.62910        0.20383       -1.78713
C         -2.61876       -3.97638        2.50675
C         -2.40856       -2.82770        3.24510
C         -2.01555       -1.66270        2.61052
C         -1.83447       -1.65911        1.24683
C         -2.04883       -2.79815        0.50625
C         -2.44145       -3.96386        1.13689
H         -2.92460       -4.88428        3.00065
H         -2.54874       -2.83808        4.31353
H         -1.84115       -0.75762        3.17063
H         -1.91659       -2.76260       -0.56320
H         -2.60986       -4.85839        0.56007
C          4.17448       -0.21908       -1.46544
H          3.90178        0.83825        0.39368
C          4.49610       -1.21934        0.85122
H          4.64568       -0.82906        1.86862
C          3.69866       -2.54848        0.92156
H          5.50422       -1.39184        0.44679
C          1.63876       -2.30469        2.41209
H          1.62624       -2.99819        0.36612
H          4.01645       -3.14654        1.78775
H          3.93124       -3.16022        0.03783
H          2.16634       -1.57680        3.03171
H          0.57900       -2.04428        2.43293
H          1.75402       -3.28577        2.87885
H          3.61216        0.49430       -2.06968
H          5.23659        0.00376       -1.58811
H          3.99534       -1.21201       -1.88082
Fe         0.78417        2.48012        0.82857
C          1.31340        2.22537       -1.15763
C          2.19288        3.17990       -0.51299
C          1.36424        4.24376        0.03067
C         -0.01994        3.98113       -0.32790
C         -0.04761        2.70483       -1.02023
H          1.61345        1.32843       -1.70234
H          3.28200        3.11936       -0.45847
H          1.72909        5.13006        0.55558
H         -0.88020        4.61405       -0.09865
H         -0.92989        2.22751       -1.45178
