111
-148.55691248
P         -2.65697        1.88455        0.57433
P          0.16890        0.46903        0.48045
C         -1.75832        1.56806        2.11771
C         -0.50013        1.00762        2.06648
C         -3.60646        3.47140        0.65277
C         -2.90136        4.58741       -0.08665
C         -2.32218        1.88216        3.33794
H         -3.31410        2.30145        3.37533
C         -1.61764        1.64141        4.50494
H         -2.05720        1.88671        5.45798
C         -0.35387        1.08562        4.45026
H          0.19348        0.89592        5.35890
C          0.20446        0.76269        3.22676
H          1.18204        0.31120        3.16800
Pd        -1.11971        1.54568       -1.11565
Cl        -2.60783        2.46338       -2.52319
Cl         0.42605        1.15511       -2.69511
C         -4.97558        3.07134        0.07327
C         -4.03256        0.69238        0.23355
H         -3.46635        5.52088       -0.03317
H         -1.90566        4.76863        0.32498
H         -2.77847        4.33896       -1.14126
H         -4.96528        3.25147       -1.01065
H         -5.76782        3.72180        0.47438
H         -3.89218        0.35660       -0.80275
C         -5.29235        1.57258        0.34593
C         -3.99857       -0.48190        1.18766
H         -3.70563        3.72185        1.71649
H         -5.70869        1.46570        1.35702
H         -6.07602        1.20741       -0.33505
H         -3.06743       -1.04317        1.09051
H         -4.06955       -0.14241        2.22263
H         -4.82732       -1.16989        1.00512
C         -1.39435       -3.73593       -0.29252
C         -0.96734       -2.93047       -1.37889
C         -0.48579       -1.66364       -1.10227
C         -0.36887       -1.21451        0.18598
C         -0.67197       -2.03042        1.24377
C         -1.14648       -3.31521        1.03969
O         -2.11032       -4.93752       -0.53823
C         -1.07442       -3.38128       -2.84317
H         -0.21385       -0.99000       -1.89598
H         -0.55477       -1.63981        2.23932
C         -1.42181       -4.20834        2.25893
C          4.70719        0.64802        0.19328
C          4.08003       -0.41953        0.88545
C          2.69607       -0.44461        0.93493
C          1.95089        0.57482        0.40228
C          2.55464        1.66277       -0.17061
C          3.93431        1.74642       -0.26333
O          6.10113        0.59835       -0.07489
C          4.87042       -1.55827        1.54912
H          2.17570       -1.27618        1.37866
H          1.92666        2.44007       -0.57047
C          4.56416        2.99586       -0.89858
C          0.03807       -2.72957       -3.69624
C         -0.90380       -4.90568       -2.97007
C         -2.43802       -2.95020       -3.40480
C         -0.43093       -3.88598        3.40095
C         -2.85126       -3.95571        2.76207
C         -1.23583       -5.69667        1.91231
C         -3.52097       -4.76512       -0.59577
H          1.01829       -2.90387       -3.25342
H          0.04674       -3.14504       -4.70358
H         -0.10654       -1.65491       -3.79610
H         -0.91739       -5.21593       -4.01459
H          0.04268       -5.22325       -2.53386
H         -1.70175       -5.43820       -2.45868
H         -2.54040       -3.24258       -4.44945
H         -3.25471       -3.40254       -2.84718
H         -2.55461       -1.86826       -3.34391
H         -0.53712       -4.59925        4.21799
H          0.59816       -3.93452        3.04573
H         -0.60300       -2.89490        3.81808
H         -2.97893       -2.91344        3.05352
H         -3.58553       -4.17588        1.99065
H         -3.07572       -4.57745        3.62835
H         -1.36585       -6.32377        2.79398
H         -1.95656       -6.02402        1.16731
H         -0.23816       -5.87557        1.51273
H         -3.99611       -5.37148        0.17517
H         -3.78294       -3.71683       -0.44635
H         -3.89040       -5.09664       -1.56607
C          6.43264       -0.04338       -1.30007
C          4.09921       -2.11957        2.76597
C          5.07614       -2.69352        0.53485
C          6.22960       -1.05918        2.07210
C          4.68695        2.78346       -2.41525
C          3.68279        4.24037       -0.64636
C          5.94558        3.29544       -0.28874
H          4.71064       -2.83576        3.31446
H          3.82371       -1.31974        3.45290
H          3.19187       -2.64054        2.46388
H          5.62269       -3.52302        0.98280
H          4.11737       -3.07234        0.18135
H          5.63624       -2.35158       -0.33205
H          6.09304       -0.22599        2.76067
H          6.76170       -1.85099        2.59878
H          6.86704       -0.71891        1.25993
H          5.31794        1.92805       -2.64393
H          3.70818        2.59984       -2.85798
H          5.11813        3.65940       -2.89911
H          4.18717        5.14590       -0.98283
H          2.73880        4.18226       -1.18608
H          3.46595        4.35304        0.41557
H          6.36132        4.21752       -0.69419
H          6.65350        2.49718       -0.49658
H          5.87211        3.40314        0.79291
H          6.96683        0.65352       -1.94564
H          7.08619       -0.89297       -1.10295
H          5.52949       -0.38793       -1.80539
