59
-75.79867498
Cl         1.49989        1.09305        2.32167
P          1.62561        0.10026       -0.74697
P         -1.55005       -0.14418       -0.80546
C          0.70146        0.55488       -2.27858
H          0.48691        1.62428       -2.23380
H          1.35762        0.39345       -3.13893
C         -0.56724       -0.25139       -2.37572
H         -0.33190       -1.30462       -2.54514
H         -1.19990        0.07149       -3.20819
C          2.26109       -1.63423       -0.88500
H          1.90687       -2.02052       -1.84806
C          3.23391        0.99485       -0.56967
H          3.40817        1.09514        0.50879
C         -2.38817       -1.73174       -0.33330
H         -2.13217       -1.90349        0.71947
C         -3.02878        0.96377       -0.94838
H         -3.20196        1.10193       -2.02252
C          3.79582       -1.47230       -0.88744
H          4.18331       -1.77443        0.09496
H          4.25467       -2.16574       -1.60793
C          4.23062       -0.00841       -1.17548
H          4.28206        0.15635       -2.26096
H          5.24661        0.18463       -0.79756
C         -3.88450       -1.40069       -0.47321
H         -4.23112       -1.73692       -1.46000
H         -4.47369       -1.97543        0.25743
C         -4.15465        0.12013       -0.32395
H         -4.23229        0.37242        0.74278
H         -5.12659        0.39281       -0.76286
C          1.73240       -2.48830        0.26197
H          0.64262       -2.37285        0.32942
H          2.11677       -2.08413        1.20842
C          3.23033        2.37007       -1.22510
H          4.26194        2.74443       -1.28305
H          2.90228        2.26740       -2.26746
C         -1.93707       -2.91675       -1.18089
H         -2.20820       -2.72654       -2.22765
H         -0.84138       -2.97689       -1.17288
C         -2.83796        2.31542       -0.26936
H         -3.79900        2.84826       -0.25829
H         -2.58960        2.14935        0.78658
C          2.09280       -3.95998        0.12551
H          3.17445       -4.10354        0.10090
H          1.69176       -4.37894       -0.79941
H          1.70108       -4.55587        0.95302
C          2.35583        3.36930       -0.48364
H          1.33090        3.00886       -0.39699
H          2.32466        4.34061       -0.98235
H          2.71851        3.53164        0.53313
C         -2.52878       -4.23835       -0.71459
H         -2.24984       -4.45087        0.31927
H         -2.18949       -5.07794       -1.32566
H         -3.61930       -4.22242       -0.75650
C         -1.77459        3.17563       -0.92855
H         -1.67328        4.14894       -0.44295
H         -0.80144        2.68885       -0.88671
H         -2.00336        3.35286       -1.98111
Cl        -1.73177        0.42264        2.29735
Pd        -0.01514        0.33847        0.85360
