59
-75.79865582
Cl         1.50758        0.97752        2.31361
P          1.60366        0.00227       -0.79041
P         -1.56550       -0.11661       -0.83960
C          0.69003        0.60242       -2.27814
H          0.51461        1.67243       -2.15038
H          1.33604        0.48353       -3.15311
C         -0.60691       -0.14790       -2.42638
H         -0.41468       -1.19339       -2.67768
H         -1.23324        0.26173       -3.22482
C          2.19298       -1.72811       -1.09573
H          1.69224       -2.04213       -2.02070
C          3.24615        0.82792       -0.60619
H          3.50353        0.76623        0.45827
C         -2.42893       -1.71009       -0.44074
H         -2.16831       -1.93956        0.59985
C         -3.02411        1.02545       -0.90760
H         -3.20440        1.22406       -1.97105
C          3.71321       -1.58118       -1.33680
H          4.25855       -2.07304       -0.52230
H          4.00940       -2.13042       -2.24296
C          4.16012       -0.09441       -1.43221
H          4.13021        0.23400       -2.48093
H          5.20845        0.02390       -1.11701
C         -3.91985       -1.34513       -0.55122
H         -4.27926       -1.62166       -1.55188
H         -4.51459       -1.94732        0.15231
C         -4.16046        0.17040       -0.31864
H         -4.22463        0.36677        0.76065
H         -5.13067        0.48374       -0.73356
C          1.81291       -2.65556        0.05827
H          2.08415       -3.68754       -0.20503
H          0.71921       -2.66016        0.16042
C          3.23716        2.28320       -1.05734
H          4.27189        2.64986       -1.10889
H          2.86264        2.33464       -2.08776
C         -2.00352       -2.85695       -1.35082
H         -2.27417       -2.60707       -2.38510
H         -0.90884       -2.93681       -1.34918
C         -2.80072        2.33565       -0.16030
H         -3.75195        2.88356       -0.10919
H         -2.54361        2.10957        0.88226
C          2.43785       -2.28728        1.39789
H          2.23029       -1.25060        1.66220
H          3.52243       -2.40146        1.39014
H          2.05709       -2.91119        2.20983
C          2.41309        3.17856       -0.14536
H          1.38181        2.83182       -0.07760
H          2.39151        4.21390       -0.49278
H          2.81184        3.17926        0.87081
C         -2.61981       -4.18956       -0.95236
H         -2.34281       -4.46144        0.06801
H         -2.29869       -5.00234       -1.60788
H         -3.70992       -4.15023       -0.98966
C         -1.72984        3.21223       -0.78582
H         -1.60846        4.15736       -0.25157
H         -0.76331        2.71042       -0.78052
H         -1.96680        3.44770       -1.82506
Cl        -1.74326        0.26564        2.27032
Pd        -0.01697        0.26409        0.83579
