171
-217.83634402
P         -1.69945        0.64922        0.24402
P          1.45527       -0.20297       -0.29706
C         -0.99146        1.78491       -0.97457
C          0.57114       -0.90085       -1.71104
C         -0.32099        1.38325       -2.12430
C          0.29087        2.36128       -2.93050
C          0.16780        3.69678       -2.58697
C         -0.51255        4.07922       -1.45100
C         -1.07739        3.11545       -0.63803
C          0.66724       -2.23625       -2.02162
C         -0.00771       -2.75166       -3.11021
C         -0.80166       -1.92530       -3.87648
C         -0.94479       -0.58417       -3.56287
C         -0.22484       -0.05568       -2.47367
Cl         2.14193        1.34102        2.52299
Cl        -0.86180        0.77564        3.49800
C         -1.84647        0.27437       -4.37959
C          1.08735        1.99444       -4.13382
H         -0.59327        5.12203       -1.19102
H         -1.58587        3.39793        0.27200
H          1.24890       -2.89010       -1.39659
H          0.07724       -3.79803       -3.35412
H          0.62210        4.44045       -3.21969
H         -1.32428       -2.32147       -4.73035
C         -2.72083       -3.62956       -0.84636
C         -1.67402       -3.41472        0.04090
C         -1.35675       -2.10071        0.36427
C         -2.04876       -1.05713       -0.20670
C         -3.08256       -1.29110       -1.07986
C         -3.44545       -2.59001       -1.41367
H         -2.99251       -4.64013       -1.08998
H         -0.56377       -1.88462        1.05721
H         -3.61363       -0.44887       -1.48766
C         -5.64499        2.47438        1.53861
C         -5.30744        2.45784        0.18969
C         -4.08881        1.89551       -0.16819
C         -3.24719        1.38133        0.78725
C         -3.59521        1.41140        2.11248
C         -4.80425        1.95732        2.51796
H         -6.58220        2.90503        1.83390
H         -3.78466        1.87042       -1.20170
H         -2.90176        1.02816        2.83865
C          3.94680       -3.48575        1.66872
C          3.21065       -2.63877        2.48628
C          2.45050       -1.65141        1.87733
C          2.43815       -1.49700        0.51117
C          3.21008       -2.32114       -0.27296
C          3.95733       -3.34992        0.28695
H          4.53632       -4.26628        2.11162
H          1.88766       -0.97742        2.49458
H          3.22410       -2.16253       -1.33631
C          4.34830        2.91999       -1.85588
C          3.46841        3.27871       -0.84246
C          2.59079        2.31137       -0.37118
C          2.60464        1.04096       -0.88958
C          3.47652        0.70649       -1.89581
C          4.37097        1.64147       -2.40065
H          5.03607        3.65976       -2.21994
H          1.88875        2.54355        0.40906
H          3.45442       -0.29058       -2.29976
Pd         0.23328        0.65647        1.54795
C         -1.94555       -5.39251        1.55016
C         -0.95230       -4.61862        0.66493
C          0.23701       -4.17756        1.53458
C         -0.41733       -5.54372       -0.44492
H         -1.46294       -6.24742        2.02349
H         -2.34110       -4.74959        2.33631
H         -2.78730       -5.76368        0.96647
H          0.96582       -3.62802        0.94189
H         -0.09335       -3.54225        2.35540
H          0.74588       -5.03985        1.96512
H          0.10863       -6.39765       -0.01822
H         -1.22338       -5.92869       -1.06791
H          0.28013       -5.01143       -1.08995
C         -5.66108       -3.75121       -1.57718
C         -4.62995       -2.89882       -2.34046
C         -4.12993       -3.67199       -3.57322
C         -5.32679       -1.61022       -2.81814
H         -6.00527       -3.22948       -0.68432
H         -6.52978       -3.96317       -2.20029
H         -5.23541       -4.70404       -1.26492
H         -4.95564       -3.91757       -4.24083
H         -3.41135       -3.07656       -4.13397
H         -3.64293       -4.60338       -3.28674
H         -6.16607       -1.84314       -3.47331
H         -5.71521       -1.04242       -1.97314
H         -4.63977       -0.97479       -3.37583
C         -5.46013        4.18710       -1.61651
C         -6.21058        3.04649       -0.90362
C         -7.52057        3.61076       -0.32110
C         -6.56345        1.94511       -1.92049
H         -6.08037        4.63874       -2.39051
H         -5.18250        4.96697       -0.90768
H         -4.54742        3.82585       -2.08927
H         -8.14998        4.02016       -1.11121
H         -8.09164        2.83286        0.18542
H         -7.32106        4.41288        0.38921
H         -7.06950        1.11503       -1.42800
H         -7.22328        2.32892       -2.69836
H         -5.67028        1.55412       -2.40633
C         -5.15934        0.53982        4.55526
C         -5.15019        1.98164        4.01374
C         -6.53346        2.60930        4.27110
C         -4.08941        2.80857        4.76429
H         -5.42094        0.52191        5.61305
H         -5.88544       -0.06895        4.01687
H         -4.18258        0.06992        4.44634
H         -7.31902        2.04809        3.76537
H         -6.76415        2.61243        5.33636
H         -6.56673        3.64196        3.92435
H         -4.05030        3.82653        4.37726
H         -4.31582        2.85985        5.82904
H         -3.09732        2.37187        4.65567
C          3.82393       -1.40077        4.57303
C          3.24637       -2.71742        4.01996
C          4.12489       -3.88397        4.51017
C          1.82035       -2.92032        4.56492
H          4.82567       -1.22559        4.18153
H          3.20393       -0.54943        4.29439
H          3.88502       -1.42690        5.66072
H          5.15604       -3.76563        4.17786
H          4.13337       -3.93029        5.59910
H          3.74936       -4.83859        4.14193
H          1.15896       -2.10898        4.26328
H          1.39775       -3.85563        4.20013
H          1.82261       -2.95769        5.65405
C          6.26061       -4.20000       -0.21896
C          4.76839       -4.32954       -0.57278
C          4.59469       -4.04673       -2.07841
C          4.28630       -5.76575       -0.29395
H          6.86540       -4.87477       -0.82455
H          6.61024       -3.18278       -0.39496
H          6.44086       -4.43906        0.82849
H          4.95091       -3.04978       -2.33546
H          5.16265       -4.76136       -2.67393
H          3.54896       -4.12800       -2.37482
H          4.82530       -6.48483       -0.91054
H          4.43941       -6.04132        0.74871
H          3.22293       -5.86314       -0.51290
C          4.89853        4.95141        0.35437
C          3.50760        4.69630       -0.25443
C          2.45117        4.88061        0.85341
C          3.23136        5.72222       -1.36809
H          5.11765        4.21827        1.13044
H          5.68030        4.88281       -0.40115
H          4.95286        5.94369        0.80177
H          2.48776        5.89139        1.25913
H          1.44541        4.71615        0.46850
H          2.62221        4.18826        1.67748
H          2.25287        5.55089       -1.81455
H          3.24803        6.73846       -0.97469
H          3.97655        5.65903       -2.16008
C          6.20971        2.40870       -3.98595
C          5.36883        1.21758       -3.48808
C          4.60875        0.62593       -4.69061
C          6.31717        0.15448       -2.90404
H          6.80954        2.83121       -3.18016
H          6.89399        2.09586       -4.77457
H          5.57277        3.19416       -4.39254
H          5.30088        0.31866       -5.47442
H          4.02511       -0.24801       -4.40419
H          3.92689        1.36120       -5.11626
H          6.86077        0.55245       -2.04741
H          5.76521       -0.72277       -2.56913
H          7.04582       -0.17071       -3.64637
H         -2.70465       -0.29265       -4.74330
H          2.03436        2.53626       -4.14608
H         -1.32169        0.67736       -5.24663
H         -2.23005        1.11232       -3.79531
H          0.54844        2.24061       -5.04973
H          1.31861        0.92862       -4.15145
