111
-148.54832071
P         -2.66991        1.86673        0.62352
P          0.18475        0.47589        0.45356
C         -1.72817        1.52112        2.13957
C         -0.46532        0.97545        2.05791
C         -3.83457        3.28156        0.93026
C         -3.72163        4.36543       -0.11747
C         -2.27730        1.79075        3.37802
H         -3.27621        2.18852        3.44522
C         -1.55365        1.52919        4.52854
H         -1.98373        1.74135        5.49380
C         -0.28335        0.99440        4.44150
H          0.28025        0.78867        5.33664
C          0.25933        0.71110        3.20168
H          1.24223        0.27615        3.11897
Pd        -1.10298        1.64763       -1.08226
Cl        -2.30732        3.02340       -2.36840
Cl         0.44689        1.22632       -2.65338
C         -5.21433        2.59142        0.95471
C         -3.88564        0.52431        0.22907
H         -4.37520        5.21173        0.10631
H         -2.69790        4.73796       -0.19615
H         -4.00912        3.98085       -1.09691
H         -5.98155        3.29099        0.59197
H         -5.49738        2.35407        1.99069
H         -3.58560        0.09458       -0.73675
C         -5.21994        1.28747        0.10923
C         -3.88774       -0.54091        1.30408
H         -3.57842        3.69232        1.91570
H         -6.04801        0.63091        0.41392
H         -5.41251        1.53880       -0.94420
H         -2.90121       -0.99422        1.41491
H         -4.16157       -0.11259        2.27003
H         -4.60108       -1.33742        1.07951
C         -1.43371       -3.69358       -0.39649
C         -1.10051       -2.83327       -1.47342
C         -0.59442       -1.58103       -1.17554
C         -0.37163       -1.19433        0.11911
C         -0.58146       -2.06454        1.15627
C         -1.07014       -3.34014        0.92869
O         -2.17014       -4.88310       -0.64045
C         -1.33507       -3.21116       -2.94352
H         -0.37597       -0.87435       -1.95642
H         -0.38145       -1.72348        2.15697
C         -1.23464       -4.29606        2.11989
C          4.72971        0.57488        0.17529
C          4.08613       -0.42665        0.94651
C          2.70152       -0.43476        0.98501
C          1.97031        0.55176        0.37585
C          2.59147        1.58454       -0.27529
C          3.97202        1.64149       -0.37233
O          6.12404        0.48939       -0.08149
C          4.85748       -1.51116        1.71550
H          2.17094       -1.22923        1.48119
H          1.97539        2.33542       -0.73855
C          4.62018        2.81969       -1.11583
C         -1.16971       -4.72587       -3.16099
C         -2.74527       -2.76530       -3.35978
C         -0.30642       -2.50795       -3.85859
C         -0.14000       -4.03283        3.17932
C         -2.61024       -4.07113        2.76592
C         -1.08753       -5.76428        1.68096
C         -3.58002       -4.71316       -0.56178
H         -1.91652       -5.28985       -2.60772
H         -1.27525       -4.98435       -4.21433
H         -0.18663       -5.05615       -2.82721
H         -2.93874       -3.00650       -4.40463
H         -3.50702       -3.25230       -2.75559
H         -2.86122       -1.68885       -3.23459
H         -0.38575       -2.87324       -4.88217
H         -0.46475       -1.43107       -3.89157
H          0.71031       -2.69462       -3.51411
H         -0.17355       -4.78652        3.96571
H          0.85107       -4.06455        2.72733
H         -0.26638       -3.06395        3.66002
H         -2.70586       -3.04592        3.12282
H         -3.41356       -4.25014        2.05496
H         -2.75649       -4.73826        3.61499
H         -1.13685       -6.43634        2.53734
H         -1.87591       -6.05348        0.99074
H         -0.13228       -5.92113        1.18105
H         -3.82665       -3.67273       -0.34631
H         -4.03636       -5.00602       -1.50725
H         -3.98339       -5.35185        0.22376
C          6.45473       -0.27585       -1.23383
C          5.03893       -2.74239        0.81508
C          6.22698       -0.99089        2.18882
C          4.07857       -1.93666        2.98163
C          5.99634        3.16458       -0.51847
C          4.76079        2.46127       -2.60324
C          3.74678        4.08949       -0.99834
H          4.07212       -3.13770        0.50408
H          5.59925       -2.49522       -0.08342
H          5.57451       -3.53366        1.33901
H          6.87035       -0.74284        1.34859
H          6.10758       -0.09267        2.79377
H          6.74399       -1.73850        2.78988
H          3.82313       -1.06881        3.58913
H          3.15884       -2.46379        2.73281
H          4.67632       -2.61021        3.59533
H          6.42689        4.03910       -1.00563
H          5.90979        3.37748        0.54648
H          6.69836        2.34323       -0.63823
H          3.78652        2.24023       -3.03874
H          5.20298        3.28444       -3.16373
H          5.38993        1.58520       -2.74004
H          4.26408        4.95416       -1.41346
H          3.51578        4.30648        0.04420
H          2.81031        3.98632       -1.54450
H          7.08158       -1.11983       -0.94664
H          5.54950       -0.64321       -1.71896
H          7.01694        0.34233       -1.93358
