87
-129.18301216
P         -1.63122       -0.44051        0.01391
P          1.57756        0.33589       -0.15953
C         -1.43076        0.81951       -1.27299
C          1.36659       -0.73366       -1.58662
C         -0.49350        0.75714       -2.30333
C         -0.32809        1.87808       -3.14019
C         -1.12581        2.99291       -2.95105
C         -2.06276        3.03100       -1.94260
C         -2.20199        1.94540       -1.10053
C          2.20767       -1.80332       -1.77131
C          2.06008       -2.61590       -2.87800
C          1.06533       -2.34850       -3.79514
C          0.20322       -1.27772       -3.62452
C          0.36216       -0.44251       -2.50021
Cl         1.30612        1.51348        2.86707
Cl        -1.33378       -0.24047        3.28857
H         -2.67194        3.90852       -1.80022
H         -2.91385        1.98091       -0.29209
H          2.98886       -1.99772       -1.05553
H          2.71908       -3.45616       -3.02310
H         -0.99704        3.84339       -3.59897
H          0.94807       -2.97920       -4.65995
C         -0.51539       -4.73953       -0.95405
C         -1.28019       -4.02404       -1.86504
C         -1.61525       -2.70878       -1.56309
C         -1.20075       -2.13874       -0.38252
C         -0.48070       -2.87016        0.53406
C         -0.12332       -4.17238        0.24230
H         -0.23731       -5.75321       -1.18742
C         -1.70091       -4.64443       -3.15067
H         -2.19181       -2.12424       -2.26026
H         -0.23725       -2.43144        1.48842
H          0.45067       -4.74621        0.95142
C         -5.87427       -0.25866        1.65713
C         -5.52762       -1.22667        0.73546
C         -4.23477       -1.28446        0.24933
C         -3.29934       -0.37533        0.68636
C         -3.64465        0.59193        1.60177
C         -4.93621        0.65872        2.10971
H         -6.88115       -0.20970        2.03540
H         -6.26342       -1.93653        0.39466
H         -3.95013       -2.03567       -0.46936
H         -2.90138        1.29383        1.94205
C         -5.30385        1.71359        3.09309
C          4.91135       -1.30038        2.48197
C          5.02030       -0.02882        1.95413
C          4.01555        0.47198        1.14802
C          2.91398       -0.30292        0.87165
C          2.80178       -1.56790        1.40033
C          3.79696       -2.08510        2.21962
H          5.69423       -1.69363        3.10786
H          5.88595        0.57464        2.17293
H          4.08171        1.46693        0.73942
H          1.93561       -2.16445        1.17133
C          3.67779       -3.46284        2.76951
C          2.46533        4.55062       -1.59879
C          3.21104        3.48838       -2.07139
C          2.95179        2.20807       -1.61825
C          1.95397        2.00518       -0.69417
C          1.21448        3.06123       -0.21528
C          1.46172        4.35405       -0.66005
H          2.65625        5.54657       -1.96056
H          3.98762        3.65473       -2.79983
H          3.51036        1.36350       -1.99052
H          0.43120        2.88299        0.50195
C          0.62932        5.48844       -0.17623
Pd        -0.02157        0.27518        1.54496
C          0.69900        1.90213       -4.21916
C         -0.86631       -1.03200       -4.63109
H          1.23783        2.85072       -4.21962
H          1.43600        1.10908       -4.08912
H          0.23728        1.77848       -5.19943
H         -1.37646       -1.96019       -4.89206
H         -1.61867       -0.33864       -4.25340
H         -0.44903       -0.61149       -5.54682
H         -2.06473       -5.66077       -2.99301
H         -2.50326       -4.07471       -3.62155
H         -0.86569       -4.69085       -3.85064
H         -4.48200        1.90530        3.78458
H         -5.54352        2.64944        2.58634
H         -6.17159        1.41813        3.68444
H          4.26142       -3.57515        3.68424
H          2.63983       -3.69982        3.00814
H          4.03426       -4.19996        2.04863
H          1.18107        6.42862       -0.21630
H         -0.26817        5.59695       -0.78691
H          0.31616        5.33129        0.85698
