171
-217.83569069
P         -1.46370        0.24203       -0.41870
P          1.64929       -0.74669        0.39278
C         -0.40083        1.05545       -1.63293
C          1.04471       -1.73309       -1.00174
C          0.47034        0.26788       -2.37487
C          1.33158        0.88011       -3.30559
C          1.26100        2.25168       -3.48563
C          0.39003        3.01999       -2.74238
C         -0.43307        2.41775       -1.81158
C          1.06624       -3.09201       -0.79097
C          0.55911       -3.95418       -1.74398
C          0.00449       -3.44227       -2.89722
C         -0.04919       -2.07685       -3.11986
C          0.50014       -1.20097       -2.16511
Cl         0.59459       -1.37088        3.32366
Cl        -2.40819       -1.61615        2.24510
C         -0.70992       -1.57230       -4.35496
C          2.29938        0.06985       -4.09608
H          0.35937        4.08846       -2.88028
H         -1.08109        3.02181       -1.20181
H          1.47431       -3.47586        0.13250
H          0.58540       -5.01901       -1.57967
H          1.90213        2.71908       -4.21355
H         -0.40421       -4.10657       -3.63981
C         -4.23496       -2.57067       -2.64305
C         -3.51931       -3.06441       -1.55949
C         -2.68555       -2.18831       -0.87768
C         -2.57193       -0.87942       -1.27357
C         -3.28079       -0.41046       -2.35169
C         -4.13405       -1.24808       -3.05882
H         -4.89270       -3.23844       -3.16674
H         -2.12283       -2.52188       -0.02508
H         -3.16238        0.61660       -2.65075
C         -4.07045        3.35582        1.65352
C         -3.43296        2.40381        2.43632
C         -2.64296        1.46133        1.79314
C         -2.49835        1.46602        0.42596
C         -3.16886        2.39807       -0.32992
C         -3.94866        3.37856        0.27079
H         -4.68923        4.09215        2.13253
H         -2.15910        0.69591        2.36769
H         -3.07951        2.36005       -1.40084
C          5.59804       -2.58159        1.66213
C          4.71136       -2.18121        2.65581
C          3.49344       -1.64560        2.26204
C          3.17923       -1.51919        0.93380
C          4.06571       -1.92030       -0.03534
C          5.29656       -2.46280        0.30993
H          6.54504       -2.99699        1.94789
H          2.77256       -1.33808        2.99725
H          3.79330       -1.80818       -1.07205
C          2.79235        3.62070       -0.03543
C          3.58218        2.63980       -0.62103
C          3.16899        1.32061       -0.49586
C          2.02093        1.00376        0.18778
C          1.25928        1.98740        0.77687
C          1.62823        3.32311        0.66259
H          3.09767        4.64774       -0.10281
H          3.76719        0.52652       -0.90877
H          0.37637        1.70880        1.32309
Pd        -0.45799       -0.89832        1.39745
C         -5.14772       -4.77367       -0.72207
C         -3.68366       -4.52896       -1.12973
C         -2.77875       -4.87308        0.07040
C         -3.30828       -5.45321       -2.30225
H         -5.29450       -5.80190       -0.39200
H         -5.43391       -4.11210        0.09536
H         -5.82614       -4.58990       -1.55439
H         -1.72848       -4.71349       -0.17167
H         -3.02892       -4.26356        0.93848
H         -2.89638       -5.91787        0.35706
H         -3.94889       -5.27994       -3.16602
H         -2.27740       -5.28368       -2.61037
H         -3.40668       -6.50110       -2.01937
C         -5.76492       -1.77373       -4.94229
C         -4.95996       -0.67615       -4.22037
C         -4.02567       -0.00781       -5.24719
C         -5.94260        0.36913       -3.66165
H         -6.32385       -1.35564       -5.77945
H         -5.10543       -2.54640       -5.33730
H         -6.48347       -2.24179       -4.26982
H         -4.59584        0.40699       -6.07826
H         -3.45559        0.80531       -4.79972
H         -3.31931       -0.73004       -5.65473
H         -6.60966       -0.08293       -2.92790
H         -5.41160        1.18376       -3.17099
H         -6.55327        0.79704       -4.45645
C         -3.26273        3.75379        4.55342
C         -3.64435        2.38602        3.95747
C         -2.78160        1.30441        4.63908
C         -5.12542        2.08777        4.25121
H         -3.41166        3.76208        5.63304
H         -2.21532        3.98112        4.35937
H         -3.86526        4.55610        4.12969
H         -3.04955        0.30785        4.28894
H         -1.72185        1.46555        4.44223
H         -2.92310        1.32067        5.71948
H         -5.31151        2.05107        5.32441
H         -5.77343        2.85265        3.82455
H         -5.41529        1.12768        3.82460
C         -4.33074        4.36461       -2.04555
C         -4.65189        4.47450       -0.54175
C         -4.17664        5.85388       -0.04733
C         -6.17411        4.34697       -0.35451
H         -3.25890        4.44846       -2.22488
H         -4.67671        3.41559       -2.45347
H         -4.82211        5.16055       -2.60496
H         -3.09512        5.94591       -0.14735
H         -4.63854        6.65533       -0.62361
H         -4.42970        6.00956        1.00064
H         -6.45497        4.46555        0.69137
H         -6.70328        5.10565       -0.93088
H         -6.52115        3.36810       -0.68516
C          6.41632       -2.92230        4.39741
C          5.02384       -2.30962        4.15358
C          3.96812       -3.21542        4.81494
C          4.98465       -0.91226        4.79997
H          6.48511       -3.92273        3.97060
H          7.19943       -2.30365        3.95943
H          6.62049       -3.00499        5.46488
H          4.17208       -3.34078        5.87810
H          2.96767       -2.79609        4.71514
H          3.96396       -4.20225        4.35266
H          3.99949       -0.45794        4.70086
H          5.22077       -0.96692        5.86250
H          5.70802       -0.24877        4.32642
C          6.61474       -1.67305       -1.67103
C          6.26095       -2.89561       -0.80339
C          5.57940       -3.96811       -1.67401
C          7.56518       -3.48481       -0.23306
H          7.08400       -0.89610       -1.06804
H          7.30733       -1.94650       -2.46682
H          5.72642       -1.24629       -2.13527
H          4.67689       -3.58128       -2.14601
H          6.24701       -4.31174       -2.46394
H          5.29717       -4.83079       -1.07082
H          8.23504       -3.79033       -1.03679
H          8.09412       -2.75133        0.37524
H          7.36369       -4.36319        0.37984
C          6.05961        2.35899       -0.45525
C          4.92072        2.94989       -1.30626
C          5.14693        4.46662       -1.45468
C          4.94753        2.31910       -2.71017
H          5.94907        1.28059       -0.34659
H          7.03046        2.55337       -0.91064
H          6.06012        2.79517        0.54347
H          4.34210        4.92689       -2.02777
H          5.20239        4.95418       -0.48166
H          6.08283        4.66862       -1.97556
H          4.13735        2.71304       -3.32203
H          5.88740        2.53669       -3.21723
H          4.84127        1.23643       -2.66254
C          0.47420        5.52698        0.26954
C          0.83784        4.46290        1.32325
C          1.70351        5.09942        2.42539
C         -0.46748        3.95752        1.95908
H          1.36371        5.96425       -0.18164
H         -0.12699        5.09220       -0.52772
H         -0.10161        6.33642        0.71802
H          1.97764        4.35729        3.17502
H          2.62288        5.51503        2.01434
H          1.16697        5.90448        2.92722
H         -1.02480        4.78137        2.40424
H         -1.10676        3.49751        1.20845
H         -0.26997        3.22720        2.74325
H         -0.10315       -1.78148       -5.23704
H          2.69745       -0.75434       -3.50187
H         -0.88104       -0.49614       -4.30753
H         -1.67902       -2.05399       -4.49363
H          3.14395        0.67384       -4.42999
H          1.82331       -0.35136       -4.98211
