115
-277.93741304
P         -1.66854        0.80228        0.29380
P          1.93662        0.07459       -0.03568
C         -2.61141        2.32611        0.18697
C         -3.88244        2.34997        0.72185
H         -4.36031        1.42614        1.00927
C         -4.47036        3.56521        1.01748
H         -5.40369        3.60228        1.55562
C         -3.79086        4.74908        0.76680
C         -2.57692        4.70770        0.10078
H         -2.05455        5.63567       -0.07335
C         -1.97885        3.49569       -0.17583
H         -0.98904        3.46646       -0.60179
C         -2.67459       -0.53093       -0.38211
C         -3.00807       -1.61425        0.39869
H         -2.74366       -1.62969        1.44292
C         -3.63811       -2.70068       -0.16997
H         -3.83988       -3.58555        0.41267
C         -3.95285       -2.69891       -1.51715
C         -3.64873       -1.59129       -2.28390
H         -3.86806       -1.61793       -3.34006
C         -3.00800       -0.51125       -1.71591
H         -2.72005        0.32928       -2.32520
C         -1.26600        0.49633        2.05363
C         -0.57451       -0.68773        2.20987
H         -0.30554       -1.25268        1.33759
C         -0.05626       -1.08185        3.44096
C         -0.44380       -0.36076        4.56288
H         -0.09181       -0.66459        5.53452
C         -1.13477        0.82571        4.42159
H         -1.31624        1.43508        5.29081
C         -1.45116        1.33622        3.16177
C          1.84557        0.82771        1.62975
C          1.19299        2.04871        1.62620
H          0.78005        2.42393        0.70518
C          0.90976        2.72909        2.81110
C          1.51649        2.27278        3.97473
H          1.34635        2.79888        4.89921
C          2.19028        1.06825        3.98517
H          2.54599        0.67136        4.92078
C          2.26485        0.27087        2.84340
C         -1.63671        2.83431        3.06328
H         -2.17698        3.18551        3.95068
H         -2.32043        3.06794        2.25097
C         -0.29235        3.63442        2.89543
H         -0.33128        4.27237        2.00664
H         -0.15892        4.33495        3.72745
C          1.15896       -1.97009        3.48104
H          0.98140       -2.84449        2.84681
H          1.26648       -2.38163        4.49065
C          2.46879       -1.21186        3.04560
H          3.25966       -1.36406        3.78839
H          2.87209       -1.63616        2.12876
C          1.74000       -1.72087       -0.15954
C          2.83171       -2.51213        0.12446
C          0.51296       -2.30093       -0.40833
C          2.65833       -3.86459        0.33871
C          0.34120       -3.65582       -0.21336
C          1.39829       -4.43105        0.24076
C          3.44793        0.59233       -0.86138
C          4.02928       -0.17689       -1.84258
C          4.01842        1.78584       -0.48588
C          5.19564        0.24750       -2.44689
H          3.56467       -1.10198       -2.14377
C          5.18407        2.20883       -1.08925
H          3.55695        2.37987        0.28643
C          5.77872        1.44277       -2.07381
H          5.67565       -0.34424       -3.21041
H          5.65488        3.13304       -0.79505
Pd         0.09837        0.86935       -1.25581
Cl        -1.38552        1.95185       -2.56537
Cl         1.52755        0.80900       -2.99407
H         -0.62600       -4.11586       -0.35244
H         -0.33139       -1.69296       -0.68504
H          3.47155       -4.47792        0.69511
H          3.80332       -2.06141        0.25593
C         -5.65278        6.13375        1.79376
C         -4.12624        6.01465        1.51652
C         -3.27272        5.97380        2.82526
F         -6.29119        5.98669        0.62346
F         -6.03513        5.16857        2.64113
F         -5.91158        7.34383        2.31313
F         -3.74902        7.08284        0.80983
F         -3.53202        4.83589        3.48306
F         -1.98180        5.97938        2.46434
F         -3.55290        7.04156        3.58417
C         -3.13539       -4.70964       -2.67384
C         -4.41614       -3.95305       -2.21090
C         -5.31917       -4.81206       -1.27816
F         -3.45548       -5.94765       -3.07873
F         -2.60219       -4.00927       -3.68576
F         -2.26534       -4.74509       -1.65361
F         -5.12974       -3.64156       -3.29619
F         -6.26360       -4.00566       -0.77120
F         -5.88679       -5.79361       -1.99662
F         -4.57995       -5.32395       -0.28391
C          7.08059        3.36613       -3.04774
C          7.09697        1.85260       -2.67982
C          8.23047        1.49955       -1.67428
F          5.98798        3.59033       -3.79294
F          7.02396        4.10086       -1.92827
F          8.18629        3.66150       -3.74836
F          7.31901        1.16481       -3.80327
F          8.20934        0.16990       -1.49762
F          9.41273        1.88269       -2.17878
F          7.99124        2.11398       -0.50644
C          0.84242       -5.33592        2.44654
C          1.15360       -5.73051        0.96882
C          0.00486       -6.55538        0.32405
F          0.58454       -6.43545        3.16722
F          1.91900       -4.69892        2.92638
F         -0.19977       -4.49358        2.46360
F          2.25857       -6.48006        0.96167
F         -1.16204       -5.92260        0.51516
F          0.26333       -6.66012       -0.98859
F         -0.02663       -7.77380        0.88719
