171
-217.83968612
P         -1.67923        0.64153        0.25877
P          1.48703       -0.20177       -0.29671
C         -0.95177        1.74601       -0.97245
C          0.61866       -0.93276       -1.69548
C         -0.32873        1.31766       -2.13860
C          0.27886        2.27613       -2.97185
C          0.22406        3.61449       -2.62092
C         -0.39816        4.02072       -1.46036
C         -0.97860        3.07847       -0.63364
C          0.80050       -2.25730       -2.00756
C          0.12664       -2.81762       -3.07461
C         -0.73458       -2.04215       -3.82306
C         -0.93710       -0.70453       -3.52322
C         -0.22481       -0.13016       -2.45285
Cl         2.10849        1.19949        2.65903
Cl        -0.92700        0.50244        3.48662
C         -1.88085        0.10657       -4.34046
C          1.00164        1.88579       -4.21356
H         -0.42447        5.06464       -1.19383
H         -1.45034        3.37868        0.29053
H          1.47826       -2.85288       -1.42062
H          0.27025       -3.85760       -3.31834
H          0.69033        4.34124       -3.26472
H         -1.25411       -2.47435       -4.66115
C         -2.82852       -3.60923       -0.82017
C         -1.79902       -3.42206        0.09478
C         -1.42745       -2.11758        0.39373
C         -2.06949       -1.05436       -0.19789
C         -3.09909       -1.26001       -1.08300
C         -3.50293       -2.54842       -1.41088
H         -3.13251       -4.60758       -1.07217
H         -0.64029       -1.93267        1.10272
H         -3.59546       -0.40329       -1.50420
C         -5.58768        2.57160        1.50641
C         -5.22997        2.55455        0.16327
C         -4.02270        1.95881       -0.17751
C         -3.21297        1.41382        0.78860
C         -3.58155        1.44295        2.10883
C         -4.78130        2.02357        2.49659
H         -6.51558        3.02657        1.79788
H         -3.70244        1.93047       -1.20609
H         -2.90972        1.02353        2.83427
C          4.00101       -3.46698        1.64717
C          3.02189       -2.85784        2.41956
C          2.24809       -1.87025        1.82635
C          2.46588       -1.48727        0.52338
C          3.46035       -2.08581       -0.21209
C          4.24146       -3.09812        0.33090
H          4.59515       -4.24844        2.08414
H          1.47508       -1.39094        2.39603
H          3.61902       -1.76341       -1.22527
C          4.30878        2.96030       -1.89537
C          3.55562        3.25025       -0.76486
C          2.71413        2.26090       -0.27509
C          2.61494        1.04991       -0.91160
C          3.34589        0.79020       -2.04531
C          4.21977        1.74224       -2.55765
H          4.99513        3.70138       -2.26099
H          2.13822        2.42327        0.61757
H          3.21288       -0.15518       -2.54144
Pd         0.24775        0.57839        1.56888
C          0.37519       -4.62849        0.47207
C         -1.12207       -4.59556        0.82059
C         -1.74065       -5.94926        0.42120
C         -1.29884       -4.41169        2.33933
H          0.86272       -3.69765        0.75321
H          0.88174       -5.44092        0.99246
H          0.51756       -4.77725       -0.59762
H         -2.80356       -5.98079        0.66004
H         -1.61823       -6.13744       -0.64530
H         -1.25796       -6.76692        0.95648
H         -2.35576       -4.35594        2.59899
H         -0.86088       -5.24472        2.88844
H         -0.82295       -3.49517        2.68394
C         -5.73470       -3.67575       -1.62154
C         -4.68274       -2.82202       -2.35521
C         -4.17972       -3.57635       -3.59793
C         -5.35945       -1.51464       -2.81098
H         -5.32986       -4.64442       -1.33139
H         -6.07673       -3.17110       -0.71812
H         -6.60214       -3.85572       -2.25637
H         -3.70469       -4.51771       -3.32398
H         -5.00171       -3.80067       -4.27751
H         -3.44979       -2.97812       -4.14069
H         -4.66387       -0.87983       -3.35822
H         -6.20213       -1.72344       -3.46989
H         -5.73872       -0.95535       -1.95611
C         -5.30294        4.29553       -1.63653
C         -6.09827        3.17537       -0.94006
C         -7.39842        3.77684       -0.37308
C         -6.46979        2.08964       -1.96708
H         -5.89801        4.76999       -2.41661
H         -5.01117        5.06294       -0.91981
H         -4.39537        3.90838       -2.09858
H         -8.00036        3.01428        0.12089
H         -7.18430        4.56842        0.34479
H         -8.00349        4.20976       -1.16963
H         -7.10451        2.49725       -2.75369
H         -5.58188        1.67193       -2.44019
H         -7.00987        1.27433       -1.48621
C         -4.19048        1.41698        4.89718
C         -5.22323        2.08263        3.96599
C         -6.56635        1.34649        4.12360
C         -5.38311        3.55423        4.38959
H         -3.22463        1.91776        4.83451
H         -4.51859        1.46318        5.93541
H         -4.05103        0.36683        4.64164
H         -7.34704        1.81276        3.52378
H         -6.47511        0.30808        3.80553
H         -6.89556        1.35378        5.16254
H         -4.44521        4.09457        4.26257
H         -6.14289        4.05811        3.79332
H         -5.67698        3.62920        5.43640
C          2.42648       -4.74919        3.95570
C          2.83590       -3.26753        3.88772
C          1.74928       -2.42203        4.58257
C          4.16198       -3.05960        4.64297
H          3.18822       -5.39077        3.51418
H          2.27895       -5.06650        4.98783
H          1.49561       -4.91600        3.41583
H          2.00248       -1.36221        4.55906
H          0.77951       -2.55387        4.10500
H          1.64206       -2.71253        5.62739
H          4.05534       -3.31683        5.69663
H          4.95684       -3.67832        4.22839
H          4.47985       -2.01905        4.57977
C          6.68210       -3.67646        0.24007
C          5.32886       -3.81441       -0.48171
C          5.46995       -3.21502       -1.89515
C          4.95735       -5.30230       -0.61551
H          6.65594       -4.13862        1.22606
H          7.47850       -4.15462       -0.32998
H          6.94309       -2.62621        0.36921
H          4.54297       -3.31542       -2.45957
H          5.73416       -2.15879       -1.84697
H          6.25282       -3.72561       -2.45578
H          3.99251       -5.41451       -1.11010
H          5.70254       -5.83987       -1.20161
H          4.88993       -5.78176        0.36046
C          5.11650        4.80878        0.42360
C          3.67701        4.62200       -0.08771
C          2.71066        4.75173        1.10684
C          3.33735        5.72490       -1.10729
H          5.23083        5.76909        0.92608
H          5.37679        4.02307        1.13259
H          5.83456        4.77215       -0.39485
H          1.67633        4.61862        0.79026
H          2.93413        4.01222        1.87544
H          2.79184        5.73704        1.56532
H          3.39466        6.71163       -0.64815
H          4.02477        5.71044       -1.95213
H          2.32785        5.59161       -1.49512
C          4.68479        0.16822       -4.50241
C          5.12603        1.44688       -3.76220
C          6.56627        1.25333       -3.25632
C          5.08515        2.61848       -4.76296
H          5.30357       -0.00155       -5.38342
H          4.77882       -0.71051       -3.86530
H          3.64953        0.24502       -4.83360
H          7.24454        1.03250       -4.08031
H          6.92730        2.15010       -2.75343
H          6.61717        0.42878       -2.54538
H          5.46557        3.53799       -4.32072
H          5.69566        2.40041       -5.63913
H          4.06751        2.80464       -5.10351
H         -1.37657        0.53762       -5.20611
H          1.17069        0.80945       -4.25955
H         -2.30719        0.92304       -3.75531
H         -2.70741       -0.50325       -4.70752
H          1.97585        2.37314       -4.25800
H          0.43972        2.17944       -5.10131
