111
-148.55138309
P         -2.47400        2.14080        0.41074
P          0.08725        0.26787        0.61472
C         -1.75230        1.76363        2.03084
C         -0.62689        0.97237        2.11018
C         -2.85406        3.94699        0.26798
C         -2.03907        4.59737       -0.82843
C         -2.31276        2.27838        3.18223
H         -3.18390        2.90926        3.11425
C         -1.75013        1.98620        4.41282
H         -2.18875        2.38609        5.31245
C         -0.62743        1.18433        4.48931
H         -0.19048        0.95545        5.44735
C         -0.06367        0.67517        3.33299
H          0.81103        0.04493        3.37328
Pd        -1.06814        1.18852       -1.15991
Cl        -2.43400        2.02390       -2.73222
Cl         0.38532        0.24334       -2.58343
C         -4.37947        3.97620        0.02839
C         -4.15327        1.42492        0.11009
H         -2.23255        5.67098       -0.88891
H         -0.96797        4.45481       -0.66580
H         -2.28496        4.16553       -1.79929
H         -4.62300        4.78736       -0.67284
H         -4.90042        4.23048        0.96307
H         -4.02475        0.61256       -0.61847
C         -4.91529        2.61671       -0.50455
C         -4.77229        0.90266        1.38852
H         -2.60013        4.39159        1.23997
H         -5.99067        2.51397       -0.29720
H         -4.81898        2.59313       -1.60017
H         -4.13104        0.15955        1.86580
H         -4.92276        1.71362        2.10294
H         -5.74617        0.44281        1.20432
C         -1.38459       -3.97901       -0.08813
C         -0.15456       -3.56565       -0.66108
C          0.27643       -2.27102       -0.42484
C         -0.42046       -1.43550        0.40725
C         -1.55627       -1.86304        1.04439
C         -2.04104       -3.14677        0.85482
O         -1.98510       -5.19875       -0.49847
C          0.68586       -4.47186       -1.57320
H          1.14881       -1.88242       -0.92094
H         -2.07223       -1.16880        1.68431
C         -3.28575       -3.59670        1.63520
C          4.56826        0.93627        0.17063
C          4.10070       -0.23848        0.81376
C          2.73274       -0.42531        0.92864
C          1.85168        0.52864        0.49042
C          2.30025        1.71180       -0.03519
C          3.65481        1.96366       -0.17750
O          5.94635        1.06798       -0.14801
C          5.05667       -1.31295        1.35624
H          2.33307       -1.32910        1.35474
H          1.56943        2.43776       -0.34887
C          4.10247        3.32283       -0.73787
C          0.51351       -5.95603       -1.20256
C          0.27323       -4.23801       -3.03435
C          2.18868       -4.14463       -1.42252
C         -3.27495       -5.11719        1.87711
C         -3.32588       -2.92396        3.02634
C         -4.54583       -3.19518        0.85351
C         -2.85626       -5.06155       -1.61444
H         -0.50909       -6.28903       -1.36021
H          1.16247       -6.58882       -1.80748
H          0.76027       -6.12070       -0.15424
H          0.42060       -3.19489       -3.31340
H          0.86297       -4.85581       -3.71097
H         -0.77663       -4.47593       -3.18947
H          2.48728       -4.18440       -0.37534
H          2.79836       -4.86137       -1.97220
H          2.42865       -3.15643       -1.81175
H         -2.36162       -5.41769        2.38943
H         -4.12352       -5.42270        2.48875
H         -3.32916       -5.66876        0.94201
H         -2.39340       -3.09265        3.56432
H         -3.48809       -1.85026        2.95404
H         -4.13822       -3.32970        3.62888
H         -5.44832       -3.47897        1.39421
H         -4.57313       -2.11807        0.69202
H         -4.57323       -3.67547       -0.12191
H         -2.49757       -5.67890       -2.43786
H         -3.85561       -5.40131       -1.34290
H         -2.90139       -4.01990       -1.93500
C          6.29388        0.58625       -1.44018
C          4.40256       -2.09401        2.51837
C          5.39995       -2.30647        0.23626
C          6.34305       -0.67401        1.91044
C          3.09801        4.43154       -0.34744
C          5.46997        3.73890       -0.16630
C          4.16710        3.24101       -2.27072
H          4.03413       -1.41286        3.28505
H          3.57114       -2.70707        2.17324
H          5.12208       -2.76579        2.98595
H          6.05746       -3.09497        0.60153
H          4.49667       -2.77367       -0.15336
H          5.89922       -1.81148       -0.59248
H          6.99646       -1.42689        2.35056
H          6.90374       -0.16915        1.12748
H          6.10618        0.06103        2.67893
H          3.47713        5.41351       -0.62962
H          2.14007        4.30387       -0.84937
H          2.92469        4.43628        0.72837
H          5.44017        3.75879        0.92260
H          6.25353        3.04741       -0.46482
H          5.75557        4.73065       -0.51607
H          4.47272        4.19449       -2.70061
H          3.19239        2.98103       -2.68309
H          4.87466        2.48261       -2.59651
H          6.67475        1.40624       -2.04845
H          7.08155       -0.16164       -1.34977
H          5.42413        0.14439       -1.92815
