72
-98.09411200
Fe         0.01898        2.77645       -0.13850
P          1.84506       -0.05130        0.17715
P         -1.90084       -0.05578        0.06366
C          1.42423        1.64346        0.73874
C          0.38330        1.98104        1.69263
C          0.30653        3.42811        1.78846
C          1.31891        3.99028        0.91387
C          2.01233        2.88858        0.26857
C         -1.36543        1.48625       -0.78400
C         -1.95379        2.80707       -0.62141
C         -1.22647        3.73434       -1.47178
C         -0.20321        2.98698       -2.17915
C         -0.29371        1.60040       -1.75888
C          2.93807        0.06542       -1.32190
C          4.36206       -0.17849       -0.77152
C          3.07030       -0.79512        1.34245
C          4.39730       -0.25887        0.78030
C         -3.27992       -0.78541       -0.93313
C         -4.50905       -0.06430       -0.35669
C         -2.88146        0.42526        1.57807
C         -4.35154        0.19649        1.16469
H         -0.23791        1.26723        2.23025
H         -0.37742        3.99276        2.42636
H          1.53009        5.05282        0.77405
H          2.83797        2.97869       -0.44032
H         -2.80775        3.05345        0.01308
H          0.32342        0.78130       -2.12496
Cl         1.55678       -3.04302       -0.30913
Cl        -1.59297       -3.06744        0.05750
Pd        -0.00936       -1.45397        0.04273
H          2.82972        1.09086       -1.69370
C          2.53932       -0.92523       -2.41211
H          3.01604       -1.88285        1.21657
C          2.79481       -0.42103        2.79368
H          5.05356        0.59499       -1.13698
H          4.74067       -1.12284       -1.18531
H          5.23935       -0.87815        1.12679
H          4.57473        0.74224        1.19884
H         -1.43298        4.80143       -1.58115
H          0.50069        3.39165       -2.90993
H          2.73470       -1.94305       -2.05131
H          3.66345       -0.69616        3.40805
H         -3.32814       -1.85357       -0.69463
C         -3.09448       -0.59219       -2.43440
H         -2.69439        1.50176        1.68346
C         -2.49899       -0.28602        2.88060
H         -5.42448       -0.63892       -0.56717
H         -4.63358        0.89184       -0.88470
H         -4.97135        1.05071        1.47581
H         -4.75333       -0.65932        1.72124
H         -4.03113       -0.85440       -2.94591
H         -3.17572        0.06136        3.67359
C          3.26499       -0.68390       -3.72691
H          2.97325       -1.40474       -4.49409
H          3.05234        0.31380       -4.11576
H          4.34693       -0.75643       -3.60325
C          1.53836       -1.07856        3.34313
H          1.33740       -0.78526        4.37592
H          0.66321       -0.81314        2.75003
H          1.61933       -2.16692        3.31860
C         -1.94586       -1.40652       -3.00825
H         -1.84413       -1.27096       -4.08731
H         -0.99575       -1.12591       -2.55429
H         -2.08593       -2.47265       -2.82062
C         -2.53173       -1.80375        2.81793
H         -2.31728       -2.25712        3.78861
H         -3.50156       -2.18056        2.49157
H         -1.78878       -2.18462        2.11910
H          1.45458       -0.88894       -2.57007
H          2.72067        0.67172        2.86975
H         -2.94433        0.47596       -2.63857
H         -1.50293        0.03858        3.20342
