111
-148.55424889
P         -2.41548        2.34677       -0.04145
P         -0.01076        0.34580        0.52042
C         -1.75808        2.17103        1.63772
C         -0.74029        1.27526        1.88176
C         -2.57340        4.12850       -0.50975
C         -1.80437        4.41225       -1.78144
C         -2.28381        2.91489        2.67469
H         -3.06511        3.62964        2.47395
C         -1.80205        2.74180        3.96078
H         -2.21358        3.32092        4.77127
C         -0.79998        1.82316        4.20730
H         -0.42988        1.68218        5.20948
C         -0.26836        1.08642        3.16409
H          0.51144        0.36181        3.34054
Pd        -1.21934        0.89047       -1.38098
Cl        -2.62271        1.44293       -3.04536
Cl        -0.13241       -0.68212       -2.56146
C         -4.09819        4.32849       -0.63895
C         -4.17996        1.80413       -0.20847
H         -0.74601        4.16374       -1.67013
H         -2.19648        3.81669       -2.60769
H         -1.87744        5.46396       -2.06879
H         -4.30501        5.06989       -1.42439
H         -4.49910        4.76210        0.28896
H         -4.17166        0.90479       -0.83950
C         -4.83398        2.99270       -0.94157
C         -4.80351        1.49993        1.13755
H         -2.16432        4.71330        0.32542
H         -5.89507        3.06064       -0.66032
H         -4.82456        2.81112       -2.02642
H         -4.86146        2.40201        1.74835
H         -5.81945        1.11239        1.03070
H         -4.21598        0.76526        1.69255
C         -1.09860       -4.06822        0.69870
C          0.25701       -3.68376        0.86369
C          0.56886       -2.33583        0.80550
C         -0.41268       -1.39061        0.66666
C         -1.73429       -1.74880        0.61154
C         -2.11515       -3.07999        0.65340
O         -1.43270       -5.44115        0.55184
C          1.38699       -4.70576        1.06642
H          1.59102       -2.00424        0.85255
H         -2.46831       -0.96724        0.51308
C         -3.61038       -3.42908        0.59326
C          4.46444        1.08074       -0.01236
C          3.76796        0.21652       -0.89420
C          2.40462        0.06024       -0.71424
C          1.75015        0.64414        0.33818
C          2.44017        1.39921        1.25128
C          3.80325        1.60980        1.12519
O          5.80874        1.44817       -0.28674
C          4.45315       -0.52990       -2.04955
H          1.81919       -0.50356       -1.41873
H          1.89375        1.83898        2.06557
C          4.53981        2.42547        2.19984
C          1.90658       -5.17219       -0.30195
C          2.56356       -4.07514        1.84614
C          0.89745       -5.91158        1.88869
C         -4.03182       -3.59370       -0.87531
C         -3.91416       -4.71311        1.38581
C         -4.46203       -2.30171        1.21929
C         -1.43047       -5.90200       -0.79365
H          2.25699       -4.32485       -0.88979
H          2.73507       -5.87080       -0.18778
H          1.12692       -5.66853       -0.87346
H          2.21534       -3.62013        2.77303
H          3.30606       -4.83037        2.10296
H          3.07407       -3.31304        1.25898
H          0.49420       -5.58442        2.84647
H          0.11490       -6.45651        1.36649
H          1.71138       -6.60942        2.08362
H         -3.47254       -4.38916       -1.36094
H         -5.09244       -3.83096       -0.95343
H         -3.84898       -2.67512       -1.43269
H         -3.58230       -4.61337        2.41870
H         -4.98283       -4.92621        1.39179
H         -3.41004       -5.57483        0.95606
H         -5.50474       -2.60638        1.30625
H         -4.10208       -2.04976        2.21650
H         -4.44404       -1.40196        0.60677
H         -1.12882       -5.10079       -1.46964
H         -0.74181       -6.74116       -0.89048
H         -2.42687       -6.25091       -1.06378
C          5.93674        2.59244       -1.12159
C          3.75170       -1.88268       -2.30933
C          4.36853        0.32193       -3.32488
C          5.92211       -0.84861       -1.71713
C          5.98316        1.92185        2.38269
C          4.54394        3.90859        1.79993
C          3.83765        2.28770        3.57011
H          3.69179       -2.46576       -1.39119
H          2.74337       -1.74950       -2.69794
H          4.30229       -2.46999       -3.04374
H          4.84074       -0.18551       -4.16563
H          3.32928        0.51675       -3.58879
H          4.86121        1.28220       -3.19098
H          6.38472       -1.43579       -2.51004
H          6.50862        0.05822       -1.59523
H          5.99054       -1.41705       -0.79017
H          6.56982        2.06287        1.47822
H          6.48594        2.45689        3.18793
H          5.99124        0.85949        2.62420
H          3.52561        4.28098        1.69078
H          5.04640        4.51471        2.55335
H          5.05519        4.05991        0.85240
H          2.86153        2.77061        3.57367
H          4.42858        2.75726        4.35621
H          3.70387        1.23885        3.83379
H          6.53961        3.34652       -0.61569
H          6.44172        2.31805       -2.04750
H          4.95452        3.00640       -1.35294
