59
-75.80026658
Cl         1.35064        0.14112        2.52370
P          1.53160       -0.10426       -0.75131
P         -1.65197       -0.11963       -0.87458
C          0.63535        0.35218       -2.30341
H          0.44083        1.42620       -2.28770
H          1.29609        0.15653       -3.15364
C         -0.64720       -0.42592       -2.39355
H         -0.44564       -1.49685       -2.46492
H         -1.24104       -0.15113       -3.27077
C          2.31687       -1.75557       -1.06680
H          1.67086       -2.24679       -1.80614
C          3.10533        0.86096       -0.59777
H          3.47224        0.70793        0.42356
C         -2.83062       -1.48771       -0.44391
H         -2.79589       -1.57419        0.64932
C         -2.87375        1.25005       -1.17403
H         -2.84432        1.44803       -2.25237
C          3.68044       -1.39425       -1.70330
H          4.46970       -1.98415       -1.21877
H          3.70489       -1.71472       -2.75573
C          4.01275        0.12841       -1.60244
H          3.88403        0.60206       -2.58658
H          5.07197        0.28275       -1.34479
C         -4.19135       -0.92598       -0.88634
H         -4.37885       -1.22852       -1.92593
H         -5.00283       -1.37810       -0.29567
C         -4.22305        0.62074       -0.78115
H         -4.45705        0.90844        0.25308
H         -5.03529        1.04019       -1.39395
C          2.41806       -2.61949        0.19208
H          2.74279       -3.62928       -0.09580
H          1.41493       -2.74881        0.61901
C          2.93484        2.35411       -0.85727
H          3.92083        2.80001       -1.04899
H          2.37152        2.49512       -1.78802
C         -2.47813       -2.82742       -1.07912
H         -3.31795       -3.52254       -0.94084
H         -2.39223       -2.69474       -2.16525
C         -2.56173        2.52809       -0.40172
H         -3.42736        3.20214       -0.46501
H         -2.46640        2.28320        0.66361
C          3.35002       -2.07771        1.26560
H          3.37239       -2.72199        2.14760
H          3.03663       -1.08991        1.59977
H          4.37651       -1.98525        0.90869
C          2.25889        3.07760        0.29798
H          2.09002        4.13461        0.08037
H          2.86324        3.02100        1.20536
H          1.29415        2.63114        0.53823
C         -1.20648       -3.43209       -0.50917
H         -0.36346       -2.75373       -0.63405
H         -0.94535       -4.37671       -0.99161
H         -1.30482       -3.62359        0.56113
C         -1.31581        3.24379       -0.89256
H         -0.43573        2.61185       -0.78610
H         -1.39919        3.50673       -1.94878
H         -1.12487        4.16477       -0.33688
Cl        -1.88922        0.47879        2.21443
Pd        -0.13155        0.17738        0.84886
