111
-148.55334326
P         -2.63481        2.02170        0.18210
P          0.08331        0.43601        0.44787
C         -1.82833        1.89036        1.80106
C         -0.61615        1.24271        1.90099
C         -3.47906        3.65603       -0.02701
C         -2.68384        4.59074       -0.91206
C         -2.41757        2.42445        2.92929
H         -3.37567        2.91134        2.85144
C         -1.78293        2.31594        4.15474
H         -2.24210        2.73304        5.03610
C         -0.56454        1.67137        4.25064
H         -0.07237        1.58413        5.20527
C          0.01841        1.12763        3.12027
H          0.95946        0.60334        3.18058
Pd        -1.06981        1.30822       -1.35956
Cl        -2.42677        2.08580       -2.96919
Cl         0.45797        0.48086       -2.78415
C         -4.85845        3.25436       -0.58072
C         -4.07288        0.87676       -0.03779
H         -1.68814        4.77434       -0.50146
H         -2.55327        4.16651       -1.90808
H         -3.18628        5.55376       -1.02876
H         -4.81375        3.26492       -1.67855
H         -5.61589        4.00492       -0.30777
H         -3.92742        0.39060       -1.01187
C         -5.27631        1.83693       -0.09372
C         -4.13457       -0.15094        1.07134
H         -3.58521        4.08157        0.97881
H         -5.71669        1.91045        0.91013
H         -6.06903        1.42017       -0.73339
H         -4.99917       -0.80922        0.95926
H         -3.23689       -0.77246        1.08371
H         -4.21028        0.33500        2.04586
C         -1.31855       -3.90311        0.35086
C         -0.99140       -3.23631       -0.85693
C         -0.52857       -1.93531       -0.77981
C         -0.45374       -1.27513        0.41788
C         -0.86548       -1.88125        1.57572
C         -1.33792       -3.18301        1.57277
O         -1.60167       -5.29501        0.34219
C         -1.12731       -3.89776       -2.23751
H         -0.22483       -1.40638       -1.66554
H         -0.82098       -1.31524        2.48913
C         -1.85079       -3.79867        2.88438
C          4.60679        0.85697        0.11135
C          3.84348        1.90750        0.68175
C          2.47291        1.73813        0.79434
C          1.85889        0.60869        0.31844
C          2.57992       -0.36246       -0.32508
C          3.95049       -0.24915       -0.48606
O          6.02559        0.89848        0.16529
C          4.48562        3.20473        1.19807
H          1.86102        2.48886        1.26389
H          2.05120       -1.21658       -0.71019
C          4.69645       -1.31919       -1.29866
C          0.18971       -4.60122       -2.59780
C         -2.29144       -4.90474       -2.25669
C         -1.43169       -2.83772       -3.32173
C         -2.40332       -2.70491        3.82709
C         -3.00358       -4.78315        2.61623
C         -0.69466       -4.51711        3.59601
C         -0.45569       -6.12194        0.49981
H          0.44322       -5.36423       -1.86582
H          0.12227       -5.07983       -3.57442
H          1.01117       -3.88633       -2.62918
H         -2.11383       -5.73012       -1.57187
H         -3.22184       -4.42055       -1.96183
H         -2.42886       -5.32616       -3.25216
H         -0.58252       -2.17747       -3.49132
H         -1.66045       -3.31356       -4.27491
H         -2.28869       -2.22727       -3.03821
H         -3.15109       -2.09586        3.32027
H         -2.87496       -3.15159        4.70209
H         -1.61404       -2.04858        4.19071
H         -3.41086       -5.17326        3.54865
H         -3.80986       -4.29081        2.07343
H         -2.67073       -5.63104        2.02256
H         -0.28843       -5.31596        2.98060
H          0.11538       -3.82131        3.81346
H         -1.02687       -4.95385        4.53750
H         -0.33891       -6.75767       -0.37761
H          0.43931       -5.51210        0.62937
H         -0.58738       -6.76501        1.36988
C          6.58167        0.26643        1.31127
C          3.49119        4.38400        1.10246
C          4.88771        3.02190        2.66933
C          5.71603        3.58652        0.35499
C          5.13320       -2.45789       -0.36501
C          3.77699       -1.90494       -2.39514
C          5.91987       -0.71822       -2.01415
H          3.08696        4.46925        0.09409
H          2.66089        4.26850        1.79761
H          3.98309        5.32537        1.34632
H          5.60697        2.21457        2.78380
H          5.33663        3.93152        3.06747
H          4.01759        2.77957        3.27912
H          5.44817        3.67140       -0.69763
H          6.13176        4.54073        0.67764
H          6.50208        2.84023        0.43987
H          4.26885       -2.91146        0.11962
H          5.65739       -3.23678       -0.91822
H          5.79751       -2.09514        0.41566
H          2.96957       -2.49728       -1.96808
H          3.33729       -1.11035       -2.99751
H          4.33677       -2.56080       -3.06144
H          6.40987       -1.46045       -2.64378
H          6.65607       -0.35283       -1.30257
H          5.62155        0.11844       -2.64504
H          7.17957        0.98590        1.87050
H          5.79047       -0.12530        1.95174
H          7.23453       -0.54857        0.99943
