171
-217.84564408
P         -1.64957        0.41744       -0.36367
P          1.61447       -0.41715       -0.34689
C         -0.90981        1.36267       -1.70189
C          0.88936       -1.35364       -1.69699
C         -0.09452        0.74563       -2.64413
C          0.54949        1.54305       -3.60976
C          0.32623        2.90961       -3.61887
C         -0.50859        3.49903       -2.69375
C         -1.11823        2.72037       -1.72990
C          1.10626       -2.70942       -1.73203
C          0.51916       -3.48168       -2.71525
C         -0.30423       -2.88828       -3.64847
C         -0.53701       -1.52325       -3.62972
C          0.08817       -0.73143       -2.64751
Cl         1.63063        0.36904        2.75043
Cl        -1.55230       -0.18816        2.87334
C         -1.42620       -0.91686       -4.65860
C          1.45185        0.94338       -4.63105
H         -0.68163        4.56251       -2.71918
H         -1.76341        3.17570       -0.99651
H          1.73792       -3.16595       -0.98695
H          0.69980       -4.54365       -2.74881
H          0.81530        3.51354       -4.36456
H         -0.77683       -3.48803       -4.40800
C         -3.85166       -3.35870       -1.51230
C         -2.86557       -3.42718       -0.53536
C         -2.17405       -2.26181       -0.23400
C         -2.47872       -1.08457       -0.87098
C         -3.46291       -1.02982       -1.82647
C         -4.17131       -2.17594       -2.16863
H         -4.40121       -4.24577       -1.76452
H         -1.39796       -2.26647        0.51165
H         -3.67901       -0.08234       -2.29020
C         -4.42120        2.94078        2.18686
C         -4.95294        1.87421        1.47192
C         -4.08765        1.12222        0.68791
C         -2.75501        1.44171        0.61656
C         -2.24761        2.50108        1.32641
C         -3.07066        3.26707        2.14056
H         -5.08155        3.52277        2.80167
H         -4.44444        0.27173        0.13503
H         -1.19574        2.72064        1.25612
C          4.34185       -2.97346        2.22328
C          2.97319       -3.21974        2.24947
C          2.15750       -2.45056        1.43027
C          2.69238       -1.46514        0.63887
C          4.04381       -1.22912        0.63245
C          4.90014       -1.98416        1.42132
H          4.98684       -3.55828        2.85017
H          1.09123       -2.60286        1.43010
H          4.43421       -0.43547        0.01969
C          3.94115        3.27747       -1.51699
C          2.95929        3.38129       -0.53879
C          2.23810        2.23867       -0.22294
C          2.49308        1.05259       -0.86398
C          3.46503        0.96420       -1.82954
C          4.21440        2.08327       -2.17426
H          4.52743        4.14211       -1.76461
H          1.48606        2.26829        0.54686
H          3.64239        0.01032       -2.29654
Pd        -0.01757        0.05027        1.25136
C         -1.17355       -5.25630       -0.35837
C         -2.51031       -4.73326        0.18998
C         -3.59125       -5.81123       -0.02164
C         -2.38324       -4.47413        1.70520
H         -0.38530       -4.51682       -0.22519
H         -0.87106       -6.17189        0.14948
H         -1.25362       -5.47068       -1.42374
H         -3.35967       -6.70854        0.55216
H         -4.56827       -5.45197        0.30130
H         -3.65891       -6.10394       -1.06904
H         -2.18704       -5.40119        2.24358
H         -1.56820       -3.78802        1.92968
H         -3.30266       -4.04264        2.10014
C         -5.46060       -0.77475       -3.85754
C         -5.31728       -2.15668       -3.19027
C         -6.63637       -2.48928       -2.46906
C         -5.05102       -3.20370       -4.28840
H         -4.54308       -0.48908       -4.37095
H         -6.26321       -0.78282       -4.59488
H         -5.69862       -0.00621       -3.12240
H         -7.47648       -2.47100       -3.16310
H         -6.59901       -3.47884       -2.01485
H         -6.83578       -1.76656       -1.67828
H         -5.01151       -4.21136       -3.87686
H         -5.83773       -3.18512       -5.04246
H         -4.10251       -3.00991       -4.78742
C         -6.77503        1.16994        3.03979
C         -6.44754        1.54115        1.58226
C         -6.83296        0.35458        0.67589
C         -7.27802        2.76603        1.15671
H         -7.82733        0.90839        3.14946
H         -6.17872        0.31634        3.36164
H         -6.56421        1.99815        3.71538
H         -7.89836        0.13822        0.75324
H         -6.61559        0.57410       -0.36931
H         -6.29293       -0.54869        0.95936
H         -8.34499        2.54837        1.20217
H         -7.08569        3.62098        1.80370
H         -7.03641        3.05805        0.13486
C         -2.16320        5.58773        1.94592
C         -2.47438        4.44384        2.92574
C         -1.17681        3.99622        3.63011
C         -3.44997        4.95875        4.00178
H         -1.71390        6.43553        2.46276
H         -1.47218        5.25957        1.17096
H         -3.07278        5.93280        1.45462
H         -0.40317        3.72461        2.91370
H         -0.77696        4.79473        4.25471
H         -1.36312        3.13074        4.26558
H         -2.98991        5.74944        4.59437
H         -4.35259        5.37224        3.55280
H         -3.73755        4.15706        4.68183
C          1.58052       -5.30386        2.32386
C          2.33111       -4.26377        3.17401
C          1.34055       -3.55498        4.11815
C          3.38300       -4.99640        4.02830
H          1.12767       -6.07035        2.95252
H          0.78587       -4.83580        1.74636
H          2.25839       -5.79442        1.62562
H          0.87848       -4.26420        4.80444
H          1.85025       -2.79411        4.70866
H          0.54385       -3.06287        3.56165
H          3.92814       -4.29804        4.66301
H          2.90864       -5.73114        4.67879
H          4.09900       -5.52602        3.40012
C          6.62829       -0.22423        1.85974
C          6.40377       -1.67544        1.39445
C          6.93140       -1.84406       -0.04286
C          7.19702       -2.61647        2.32089
H          6.12868        0.48506        1.20069
H          6.23537       -0.07810        2.86566
H          7.68975        0.02252        1.87145
H          8.00220       -1.64699       -0.09124
H          6.75786       -2.85894       -0.40007
H          6.43616       -1.15878       -0.72973
H          8.26211       -2.38793        2.28367
H          6.87404       -2.51157        3.35645
H          7.07229       -3.65725        2.02251
C          3.60873        5.82191       -0.21355
C          2.66394        4.68409        0.21700
C          2.84225        4.44590        1.72892
C          1.21531        5.11420       -0.06994
H          3.38896        6.73598        0.33799
H          4.64923        5.56145       -0.02032
H          3.49818        6.04331       -1.27494
H          2.15383        3.68590        2.09612
H          3.85577        4.11112        1.94855
H          2.65808        5.36029        2.29255
H          0.96227        6.02486        0.47262
H          1.07580        5.30452       -1.13346
H          0.51110        4.33815        0.22610
C          6.69458        2.25426       -2.44368
C          5.36718        2.01449       -3.18605
C          5.17626        3.09433       -4.26806
C          5.43633        0.63876       -3.87793
H          7.54079        2.19992       -3.12833
H          6.70910        3.23532       -1.97000
H          6.84086        1.50567       -1.66507
H          4.22209        2.96786       -4.77803
H          5.19607        4.09576       -3.84033
H          5.96710        3.03927       -5.01599
H          5.62819       -0.15537       -3.15677
H          4.50688        0.41372       -4.39975
H          6.24171        0.61540       -4.61193
H         -1.80013        0.05653       -4.33816
H          2.33240        1.56764       -4.78453
H         -2.28990       -1.55392       -4.85015
H         -0.89535       -0.78173       -5.60184
H          0.94252        0.84298       -5.59038
H          1.79800       -0.04525       -4.32665
