72
-98.10219082
Fe        -0.03087        2.78522       -0.08637
P          1.83421       -0.03353       -0.05571
P         -1.87145       -0.04139        0.06814
C          1.41636        1.61286        0.64293
C          0.44711        1.86521        1.69387
C          0.36355        3.30225        1.87963
C          1.33334        3.93140        1.00264
C          2.00918        2.88538        0.25637
C         -1.41580        1.55036       -0.71555
C         -2.03998        2.84230       -0.47170
C         -1.35045        3.81889       -1.29785
C         -0.35582        3.11987       -2.09305
C         -0.42450        1.70659       -1.76687
C          3.16356       -0.76810        1.01927
C          4.35968        0.12254        0.64088
C          2.94903        0.26143       -1.52087
C          4.32385        0.53323       -0.86218
C         -3.30551       -0.71628       -0.90037
C         -4.47730        0.08900       -0.31562
C         -2.80503        0.26405        1.65132
C         -4.27790        0.40081        1.19401
H         -0.14715        1.11267        2.20752
H         -0.28794        3.81760        2.58899
H          1.53294        5.00260        0.92976
H          2.78204        3.03274       -0.49973
H         -2.84687        3.04168        0.23645
H          0.17841        0.90755       -2.19908
Cl         1.56815       -3.05404       -0.34873
Cl        -1.65170       -3.02434        0.21559
Pd        -0.01055       -1.49235        0.02452
H          3.33815       -1.79127        0.66629
C          2.82603       -0.77960        2.51380
H          2.57012        1.14864       -2.04217
C          3.01109       -0.92335       -2.48222
H          5.30779       -0.37730        0.89350
H          4.32765        1.02254        1.27259
H          4.60685        1.58984       -0.97727
H          5.09377       -0.02587       -1.41232
H         -1.56776        4.88848       -1.34001
H          0.30390        3.57229       -2.83695
H          3.75163       -0.64943        3.09173
H          3.82452       -0.75486       -3.20175
H         -3.40519       -1.77590       -0.63963
C         -3.15742       -0.55637       -2.40938
H         -2.43330        1.20684        2.06979
C         -2.62775       -0.87175        2.66039
H         -5.42882       -0.43744       -0.48849
H         -4.56081        1.03012       -0.87842
H         -4.66320        1.40312        1.43295
H         -4.89433       -0.28789        1.78813
H         -4.12181       -0.77480       -2.88870
H         -2.80003       -1.82418        2.14219
C          2.12821       -2.05730        2.95823
H          1.23659       -2.25528        2.36427
H          2.78065       -2.92390        2.83536
H          1.82735       -2.01916        4.00756
C          1.71832       -1.18712       -3.23100
H          1.81594       -2.01378       -3.93848
H          0.92044       -1.45071       -2.53973
H          1.39587       -0.30934       -3.79391
C         -2.07436       -1.44012       -2.99882
H         -2.26771       -2.49485       -2.79450
H         -1.98601       -1.32122       -4.08109
H         -1.10666       -1.20191       -2.56226
C         -1.27956       -0.88674        3.35902
H         -0.46520       -0.95322        2.63998
H         -1.12531        0.02110        3.94535
H         -1.18137       -1.73497        4.04042
H          2.21666        0.10201        2.74927
H          3.30793       -1.81598       -1.91623
H         -2.95506        0.49856       -2.63599
H         -3.42454       -0.80713        3.41466
