171
-217.84718924
P         -1.58458        0.43041       -0.38245
P          1.59759       -0.40966       -0.31867
C         -0.85333        1.35365       -1.73761
C          0.89475       -1.36647       -1.66806
C         -0.05591        0.71594       -2.68064
C          0.57617        1.49325       -3.67026
C          0.35482        2.86002       -3.70146
C         -0.46360        3.46907       -2.77392
C         -1.05877        2.71073       -1.78482
C          1.09711       -2.72514       -1.66376
C          0.52388       -3.51705       -2.63923
C         -0.27268       -2.93993       -3.60506
C         -0.49181       -1.57273       -3.62641
C          0.12122       -0.76124       -2.65217
Cl         1.54455        0.33785        2.88027
Cl        -1.60718       -0.29952        2.84899
C         -1.36330       -0.99027       -4.68392
C          1.46261        0.87140       -4.69213
H         -0.63415        4.53238       -2.81663
H         -1.68808        3.17921       -1.04535
H          1.70610       -3.16960       -0.89309
H          0.69412       -4.58123       -2.64133
H          0.83326        3.44889       -4.46584
H         -0.73677       -3.55464       -4.35787
C         -3.87789       -3.29441       -1.52209
C         -4.15039       -2.11075       -2.19822
C         -3.40953       -0.98371       -1.86165
C         -2.44537       -1.05476       -0.88694
C         -2.18885       -2.23148       -0.22899
C         -2.90514       -3.38066       -0.53312
H         -4.45728       -4.16518       -1.76432
H         -3.58741       -0.03679       -2.34251
H         -1.43628       -2.24852        0.54061
C         -4.37303        2.98142        2.13054
C         -4.90767        1.96294        1.34928
C         -4.03370        1.21177        0.57624
C         -2.68794        1.47859        0.57766
C         -2.17697        2.49245        1.34900
C         -3.01051        3.25979        2.15150
H         -5.03166        3.56390        2.74532
H         -4.40564        0.39663       -0.01948
H         -1.11456        2.66956        1.34703
C          4.33378       -2.98479        2.22000
C          2.96294       -3.20015        2.28697
C          2.14362       -2.41819        1.48298
C          2.68184       -1.44764        0.67421
C          4.03767       -1.23787        0.63356
C          4.89592       -2.01084        1.40448
H          4.98277       -3.58766        2.82824
H          1.07504       -2.54602        1.49762
H          4.42040       -0.45631        0.00230
C          3.86453        3.31813       -1.50859
C          2.88189        3.41242       -0.53043
C          2.17522        2.26058       -0.21336
C          2.45957        1.07158       -0.83776
C          3.43797        0.99269       -1.79778
C          4.16434        2.12356       -2.15279
H          4.42670        4.19405       -1.77170
H          1.40149        2.28583        0.53400
H          3.63329        0.03916       -2.25820
Pd        -0.02098        0.04223        1.29543
C         -5.08433       -3.15339       -4.28881
C         -5.29303       -2.06137       -3.22245
C         -5.36280       -0.69469       -3.93199
C         -6.62670       -2.29992       -2.49098
H         -5.10341       -4.14952       -3.84885
H         -5.86711       -3.11196       -5.04604
H         -4.12519       -3.02793       -4.78962
H         -5.56671        0.10711       -3.22271
H         -4.42915       -0.47069       -4.44673
H         -6.16051       -0.68505       -4.67461
H         -7.46604       -2.25872       -3.18493
H         -6.64056       -3.27526       -2.00562
H         -6.78533       -1.54295       -1.72298
C         -2.71717       -4.40702        1.74973
C         -2.60856       -4.67569        0.23587
C         -1.18539       -5.14748       -0.10745
C         -3.59989       -5.79701       -0.12931
H         -3.71188       -4.04222        2.00469
H         -2.53382       -5.31641        2.32165
H         -1.99560       -3.65969        2.07632
H         -0.45091       -4.37657        0.12087
H         -0.92199       -6.04330        0.45459
H         -1.10566       -5.37950       -1.16891
H         -4.62552       -5.49804        0.08649
H         -3.52939       -6.05594       -1.18555
H         -3.39019       -6.69975        0.44437
C         -6.59418        0.17133        1.82072
C         -6.40364        1.61867        1.32881
C         -6.93493        1.74863       -0.11113
C         -7.21862        2.55759        2.23834
H         -6.07876       -0.53821        1.17423
H         -6.19734        0.05274        2.82871
H         -7.64963       -0.09965        1.83805
H         -6.78633        2.76095       -0.48639
H         -6.42261        1.06376       -0.78575
H         -8.00052        1.52436       -0.15583
H         -7.11888        3.59532        1.92058
H         -8.27797        2.30309        2.20641
H         -6.89260        2.47970        3.27534
C         -3.46174        5.06864        3.88713
C         -2.39218        4.33577        3.05534
C         -1.65504        5.36985        2.18598
C         -1.39477        3.66576        4.02031
H         -4.18475        5.56898        3.24317
H         -3.99644        4.37564        4.53641
H         -3.00446        5.82783        4.52159
H         -2.33748        5.83233        1.47318
H         -1.22000        6.15837        2.79980
H         -0.84838        4.90397        1.62344
H         -1.89463        2.91009        4.62575
H         -0.58725        3.17437        3.47901
H         -0.94816        4.39823        4.69226
C          0.85522       -4.25403        3.24757
C          2.39650       -4.25840        3.24394
C          2.87974       -3.96125        4.67597
C          2.88401       -5.65017        2.80492
H          0.46226       -4.50625        2.26415
H          0.46661       -4.98768        3.95361
H          0.46662       -3.27762        3.53687
H          3.96513       -4.01403        4.74956
H          2.57105       -2.96250        4.98430
H          2.46374       -4.67730        5.38447
H          2.55795       -5.86851        1.78804
H          3.97149       -5.71234        2.82811
H          2.48987       -6.42666        3.46031
C          7.10941       -3.10612        0.96338
C          6.41641       -1.79986        1.39226
C          6.88271       -1.40148        2.80432
C          6.82689       -0.68491        0.40947
H          6.77039       -3.41438       -0.02550
H          8.19121       -2.97926        0.92513
H          6.89379       -3.91642        1.65877
H          7.95784       -1.22414        2.82512
H          6.38298       -0.48951        3.13046
H          6.65904       -2.18260        3.52996
H          6.37791        0.26844        0.68776
H          7.90847       -0.55059        0.40585
H          6.52124       -0.92761       -0.60809
C          1.22889        5.28059       -0.41116
C          2.54131        4.73459        0.17259
C          3.65198        5.78418       -0.02783
C          2.37468        4.49846        1.68789
H          1.33633        5.47992       -1.47708
H          0.42177        4.56019       -0.28647
H          0.93596        6.20863        0.07941
H          4.61397        5.40334        0.31490
H          3.74544        6.06730       -1.07584
H          3.43261        6.69141        0.53506
H          2.19697        5.43796        2.21092
H          1.53310        3.84219        1.90334
H          3.27136        4.04305        2.10744
C          5.42569        0.68706       -3.83395
C          5.31107        2.07464       -3.17280
C          6.63572        2.38109       -2.45024
C          5.07088        3.12294       -4.27582
H          5.64643       -0.08334       -3.09547
H          4.50320        0.41837       -4.34731
H          6.22925        0.67487       -4.57019
H          6.81855        1.65622       -1.65745
H          7.47640        2.34346       -3.14279
H          6.61821        3.37229       -1.99836
H          5.05730        4.13326       -3.86922
H          5.85661        3.08090       -5.02995
H          4.11760        2.95130       -4.77371
H         -2.24941       -1.60646       -4.83819
H          0.93408        0.73691       -5.63675
H         -0.83272       -0.92572       -5.63478
H         -1.70185        0.01142       -4.41583
H          1.82509       -0.10401       -4.36480
H          2.33320        1.49849       -4.88463
