111
-148.55432312
P         -1.53842        2.74246       -0.36892
P         -0.45844       -0.09274        0.50442
C         -1.68917        2.21305        1.36176
C         -1.27756        0.94883        1.72694
C         -0.31294        4.12209       -0.50228
C          0.88315        3.69659       -1.32704
C         -2.17900        3.07778        2.31976
H         -2.45906        4.07965        2.03883
C         -2.28213        2.66234        3.63613
H         -2.66915        3.33615        4.38302
C         -1.88293        1.38924        3.99533
H         -1.95775        1.06815        5.02124
C         -1.36793        0.53300        3.03879
H         -1.01808       -0.45131        3.30782
Pd        -1.11984        0.78706       -1.52782
Cl        -2.16694        1.59426       -3.33577
Cl        -0.54810       -1.16912       -2.48315
C         -1.13101        5.27302       -1.12283
C         -3.05330        3.59649       -1.00542
H          0.57118        3.38074       -2.32469
H          1.59826        4.51407       -1.44484
H          1.40580        2.85545       -0.86742
H         -0.91371        5.31711       -2.19882
H         -0.79902        6.24062       -0.71737
H         -3.14107        3.30130       -2.05899
C         -2.66103        5.08204       -0.91683
C         -4.30762        3.21174       -0.25036
H         -0.01640        4.36643        0.52626
H         -2.95420        5.47058        0.06799
H         -3.23343        5.67287       -1.64835
H         -4.47444        2.13277       -0.28642
H         -4.24038        3.49688        0.79967
H         -5.18916        3.70462       -0.66649
C         -1.08644       -4.57473        1.00592
C          0.20677       -4.07580        0.70687
C          0.36340       -2.70757        0.56367
C         -0.68385       -1.84787        0.76785
C         -1.91155       -2.31796        1.15545
C         -2.13386       -3.67456        1.33026
O         -1.34429       -5.96968        0.93792
C          1.42103       -4.99065        0.48443
H          1.31102       -2.29366        0.26849
H         -2.70325       -1.60488        1.31014
C         -3.50530       -4.14888        1.83617
C          3.80387        1.44260        0.04328
C          3.29546        0.49419       -0.88364
C          2.00281        0.03397       -0.70416
C          1.25860        0.40938        0.38278
C          1.78687        1.23311        1.34154
C          3.07234        1.73485        1.22526
O          4.99014        2.16109       -0.25533
C          4.07954       -0.03942       -2.09363
H          1.53529       -0.58625       -1.44974
H          1.16845        1.51029        2.17792
C          3.61090        2.59262        2.38198
C          1.31567       -6.27605        1.32495
C          1.52142       -5.33905       -1.00859
C          2.72408       -4.27976        0.91513
C         -3.37760       -5.44759        2.65328
C         -4.13513       -3.09094        2.77086
C         -4.44223       -4.36720        0.63869
C         -1.77323       -6.41369       -0.34329
H          2.20877       -6.89061        1.21458
H          1.19780       -6.03522        2.38090
H          0.46311       -6.87932        1.02385
H          2.38238       -5.97761       -1.20439
H          0.63057       -5.85986       -1.35185
H          1.62714       -4.43532       -1.60839
H          3.57096       -4.96425        0.87175
H          2.95951       -3.43960        0.26456
H          2.64410       -3.90984        1.93694
H         -2.67957       -5.31422        3.47909
H         -4.34022       -5.74640        3.06747
H         -3.01502       -6.26858        2.03982
H         -4.40892       -2.18612        2.23046
H         -5.04461       -3.47491        3.23242
H         -3.44445       -2.81846        3.56851
H         -5.42958       -4.68892        0.96896
H         -4.56000       -3.44594        0.06871
H         -4.05022       -5.12499       -0.03540
H         -1.84434       -5.57132       -1.03266
H         -1.06507       -7.14381       -0.73465
H         -2.74672       -6.89594       -0.25594
C          4.74462        3.35160       -0.98669
C          5.58399        0.26803       -2.00152
C          3.93685       -1.57611       -2.15873
C          3.50504        0.57348       -3.38215
C          5.13563        2.78475        2.30970
C          2.91477        3.96412        2.36498
C          3.30882        1.89127        3.72498
H          5.77261        1.33735       -2.05710
H          5.99317       -0.09464       -1.05922
H          6.13218       -0.20559       -2.81560
H          4.52470       -1.98629       -2.97940
H          4.28818       -2.03256       -1.23412
H          2.90372       -1.88149       -2.31552
H          3.59568        1.65794       -3.37717
H          4.02936        0.19673       -4.25984
H          2.44883        0.32974       -3.49278
H          5.64152        1.82177        2.24964
H          5.42011        3.36548        1.43570
H          5.50738        3.31032        3.18899
H          1.83540        3.85399        2.46587
H          3.26593        4.58926        3.18548
H          3.10760        4.49314        1.43378
H          3.72238        0.88321        3.73346
H          2.23891        1.81830        3.91281
H          3.74685        2.44140        4.55744
H          5.69531        3.82738       -1.22812
H          4.21231        3.12268       -1.90835
H          4.14091        4.03758       -0.39533
