111
-148.55678422
P         -2.37250        2.51008       -0.10507
P         -0.13057        0.32488        0.42829
C         -1.77029        2.23287        1.57715
C         -0.83667        1.24736        1.81003
C         -2.30700        4.29472       -0.57964
C         -1.23536        4.52302       -1.62355
C         -2.27361        2.97150        2.62851
H         -2.99994        3.74442        2.43534
C         -1.84777        2.70912        3.91928
H         -2.24067        3.28381        4.74205
C         -0.92815        1.70497        4.15443
H         -0.60277        1.49442        5.15991
C         -0.42291        0.97026        3.09666
H          0.29010        0.17817        3.26517
Pd        -1.30021        0.99615       -1.47402
Cl        -2.74673        1.52989       -3.09998
Cl        -0.24185       -0.67375       -2.54719
C         -3.74051        4.58336       -1.06491
C         -4.19331        2.19878       -0.25578
H         -1.19319        5.57075       -1.93083
H         -0.24884        4.23810       -1.24919
H         -1.43259        3.92401       -2.51504
H         -3.77061        4.47287       -2.15764
H         -4.00849        5.63236       -0.86734
H         -4.32452        1.62360       -1.18182
C         -4.77343        3.61513       -0.42199
C         -4.73732        1.42780        0.92853
H         -2.08810        4.85404        0.33932
H         -5.06825        3.99575        0.56552
H         -5.70100        3.58123       -1.01347
H         -4.21396        0.47805        1.05742
H         -4.61429        1.99424        1.85267
H         -5.80272        1.21608        0.81229
C         -0.98077       -4.13076        0.76482
C          0.28643       -3.62580        1.15461
C          0.51666       -2.26637        1.02731
C         -0.47587       -1.41812        0.61261
C         -1.73578       -1.88398        0.34439
C         -2.03034       -3.23418        0.43746
O         -1.18904       -5.53242        0.66826
C          1.41791       -4.52520        1.67677
H          1.48636       -1.84982        1.23815
H         -2.48602       -1.17602        0.03738
C         -3.45900       -3.70889        0.13036
C          4.37397        0.97095        0.01504
C          3.65806        0.24333       -0.96809
C          2.28903        0.11424       -0.81688
C          1.63785        0.61180        0.28073
C          2.34246        1.23239        1.28003
C          3.71572        1.39244        1.19833
O          5.73829        1.30287       -0.19945
C          4.33497       -0.38246       -2.19754
H          1.69800       -0.37393       -1.57024
H          1.80249        1.59747        2.13424
C          4.46690        2.02331        2.38190
C          2.31909       -3.74819        2.66419
C          0.85656       -5.73690        2.44259
C          2.28033       -4.99492        0.49538
C         -4.48866       -2.60802        0.47278
C         -3.57293       -4.03134       -1.36750
C         -3.82542       -4.94467        0.97175
C         -0.85786       -6.08140       -0.60120
H          3.04118       -4.41476        3.13522
H          2.88728       -2.96583        2.16306
H          1.72375       -3.28881        3.45287
H          0.21170       -5.41000        3.25764
H          0.27033       -6.38138        1.79261
H          1.65978       -6.33930        2.86618
H          2.71100       -4.14236       -0.02911
H          3.09795       -5.62934        0.83661
H          1.69232       -5.56129       -0.22263
H         -4.40717       -1.75777       -0.20282
H         -5.50591       -2.98865        0.38389
H         -4.35245       -2.25305        1.49401
H         -3.33582       -3.15370       -1.96858
H         -2.88518       -4.82285       -1.65427
H         -4.58219       -4.35346       -1.62238
H         -3.70720       -4.73405        2.03412
H         -4.85851       -5.24473        0.79806
H         -3.19140       -5.79336        0.72766
H         -0.07165       -6.82704       -0.48469
H         -1.73263       -6.57420       -1.02518
H         -0.51810       -5.29619       -1.27786
C          5.93591        2.54865       -0.85615
C          5.76692       -0.84131       -1.86836
C          3.55879       -1.63348       -2.67024
C          4.35506        0.64178       -3.34216
C          4.52357        3.54690        2.19583
C          3.74400        1.71530        3.71345
C          5.89057        1.44978        2.50407
H          5.76334       -1.53739       -1.03020
H          6.22449       -1.34041       -2.72218
H          6.40148       -0.00019       -1.60056
H          4.10570       -2.15432       -3.45577
H          3.40972       -2.33133       -1.84689
H          2.58393       -1.37310       -3.07966
H          3.34199        0.94880       -3.60115
H          4.91001        1.53424       -3.06314
H          4.81900        0.22172       -4.23416
H          3.51902        3.96571        2.14047
H          5.04250        4.02267        3.02759
H          5.04383        3.81309        1.27889
H          2.78491        2.22677        3.78026
H          3.57113        0.64478        3.82198
H          4.34129        2.04534        4.56311
H          5.86054        0.36418        2.59135
H          6.39929        1.84690        3.38212
H          6.49444        1.69759        1.63475
H          6.48213        2.38924       -1.78569
H          4.97701        3.02063       -1.07388
H          6.52943        3.20655       -0.22155
