45
-71.81497587
C          1.40826        1.03480        2.71146
P          1.24385        0.80565        0.90941
P         -1.32433        0.20434       -0.87432
C         -1.28293       -0.29835       -2.62750
Cl         1.64886       -2.22934        1.57395
H          1.85904        0.15305        3.15795
H         -1.58815       -1.33654       -2.72167
Cl        -0.85786       -2.91868       -0.63538
C          0.35635        2.16111        0.12327
C         -0.72652        1.89711       -0.68606
C         -1.35951        2.92694       -1.35210
C         -0.91009        4.22649       -1.19625
C          0.17435        4.49007       -0.38216
C          0.81428        3.45358        0.27480
H         -2.19943        2.70835       -1.99208
H         -1.40509        5.03221       -1.71296
H          0.52798        5.50117       -0.26470
H          1.67592        3.64139        0.89540
Pd         0.15192       -1.14826        0.30307
H         -0.27643       -0.18961       -3.02113
H          0.42727        1.18912        3.15188
H         -1.95964        0.32253       -3.20750
C         -5.52351       -0.29890        0.82684
C         -4.98343        0.96615        0.70525
C         -3.70913        1.12573        0.19188
C         -2.98232        0.02309       -0.19844
C         -3.51662       -1.23832       -0.06891
C         -4.79046       -1.40359        0.44184
H         -6.51646       -0.42440        1.22681
H         -5.55309        1.82849        1.01058
H         -3.27615        2.10770        0.10162
H         -2.91978       -2.09071       -0.34767
H         -5.20643       -2.39248        0.54361
C          5.12580        0.13533       -1.36062
C          5.14108        0.09178        0.01992
C          3.97360        0.30342        0.73084
C          2.80308        0.56088        0.05506
C          2.78019        0.59986       -1.32133
C          3.94690        0.38818       -2.03401
H          6.03548       -0.03217       -1.91384
H          6.06056       -0.11199        0.54369
H          3.96971        0.25900        1.80763
H          1.84849        0.79373       -1.82927
H          3.93368        0.41760       -3.11111
H          2.03135        1.89906        2.92305
