111
-148.55376656
P         -1.67936        2.80803        0.05226
P         -0.52108       -0.09055        0.51142
C         -1.64081        2.10504        1.72742
C         -1.20141        0.81153        1.91426
C         -0.47993        4.21043       -0.07275
C          0.61307        3.88959       -1.07041
C         -2.01414        2.86529        2.81755
H         -2.31659        3.88939        2.67348
C         -1.97294        2.31684        4.08789
H         -2.26883        2.90933        4.93822
C         -1.54693        1.01482        4.26862
H         -1.50941        0.59031        5.25835
C         -1.14889        0.26256        3.17815
H         -0.77875       -0.74283        3.30347
Pd        -1.35860        0.99247       -1.34959
Cl        -2.63163        1.98261       -2.90282
Cl        -0.86258       -0.85420       -2.53428
C         -1.36487        5.40987       -0.46926
C         -3.25805        3.70297       -0.31862
H          0.18803        3.69095       -2.05643
H          1.31745        4.71855       -1.17232
H          1.17674        3.00231       -0.77476
H         -1.27014        5.57288       -1.55154
H         -0.99123        6.33271       -0.00062
H         -3.46406        3.52062       -1.38105
C         -2.86162        5.17624       -0.11584
C         -4.41817        3.22283        0.52703
H         -0.06859        4.34739        0.93586
H         -3.04342        5.45403        0.93132
H         -3.51385        5.83311       -0.71164
H         -4.58609        2.15159        0.39461
H         -4.23266        3.39559        1.58732
H         -5.34206        3.74494        0.26809
C         -0.79303       -4.62781        0.67772
C          0.30562       -3.96283        1.28021
C          0.35320       -2.58037        1.20910
C         -0.66972       -1.86657        0.64128
C         -1.78652       -2.49710        0.16037
C         -1.89580       -3.87771        0.19425
O         -0.76901       -6.03902        0.51929
C          1.45971       -4.71353        1.96266
H          1.20736       -2.03851        1.57790
H         -2.56399       -1.89215       -0.27384
C         -3.17490       -4.53685       -0.34435
C          3.76709        1.27754       -0.17164
C          3.19168        0.29957       -1.02290
C          1.88249       -0.08323       -0.78816
C          1.18729        0.39806        0.28830
C          1.77092        1.26664        1.17230
C          3.07311        1.70052        0.99112
O          5.01745        1.86363       -0.50392
C          3.93931       -0.31640       -2.21488
H          1.36517       -0.73483       -1.47078
H          1.18485        1.61959        2.00217
C          3.69626        2.64788        2.02798
C          2.06442       -3.86129        3.10185
C          0.97079       -6.02747        2.59866
C          2.55966       -5.00065        0.92915
C         -4.39795       -3.61921       -0.11820
C         -3.01895       -4.78185       -1.85307
C         -3.46917       -5.86142        0.38284
C         -0.17333       -6.47306       -0.69719
H          2.79501       -4.43712        3.66956
H          2.57972       -2.98177        2.71874
H          1.28868       -3.53129        3.79237
H          1.77631       -6.52547        3.13776
H          0.16050       -5.83524        3.30112
H          0.60194       -6.72002        1.84638
H          2.18417       -5.61320        0.11297
H          2.93637       -4.07241        0.50014
H          3.39788       -5.52572        1.38645
H         -4.34750       -2.72094       -0.73162
H         -5.32158       -4.13397       -0.38187
H         -4.46887       -3.31864        0.92680
H         -2.18155       -5.44367       -2.06050
H         -3.91787       -5.23437       -2.27077
H         -2.83683       -3.84426       -2.37791
H         -3.53604       -5.70182        1.45848
H         -4.41072       -6.29335        0.04459
H         -2.68802       -6.59563        0.20304
H          0.15601       -5.61598       -1.28607
H          0.68072       -7.11389       -0.47869
H         -0.89538       -7.05279       -1.27198
C          4.91624        3.01276       -1.33603
C          3.45211       -1.76147       -2.47103
C          3.66653        0.52362       -3.47187
C          5.45233       -0.39639       -1.94363
C          3.08457        2.40563        3.42685
C          5.21203        2.41006        2.15230
C          3.41966        4.10322        1.62116
H          3.51055       -2.35690       -1.56034
H          2.42410       -1.78417       -2.82924
H          4.06525       -2.24792       -3.22926
H          4.17365        0.10364       -4.34005
H          2.59881        0.55698       -3.68781
H          4.00959        1.54759       -3.34439
H          5.97193       -0.89029       -2.76434
H          5.88829        0.59235       -1.82647
H          5.64888       -0.95775       -1.03081
H          3.14900        1.35303        3.70135
H          3.61358        2.98226        4.18529
H          2.03911        2.70824        3.46787
H          5.64450        3.03674        2.93186
H          5.41799        1.36933        2.40019
H          5.72698        2.63959        1.22272
H          3.84138        4.32760        0.64457
H          3.85016        4.79839        2.34144
H          2.34790        4.29189        1.57087
H          5.38402        3.86377       -0.84122
H          5.44179        2.83427       -2.27391
H          3.87047        3.24218       -1.54395
