59
-75.79983060
Cl         1.53005        0.31216        2.42741
P          1.55316       -0.15418       -0.74408
P         -1.62209       -0.05247       -0.81363
C          0.67067       -0.65575       -2.28572
H          1.31421       -0.44422       -3.14431
H          0.56311       -1.74053       -2.24051
C         -0.67216        0.02003       -2.39993
H         -1.28108       -0.40118       -3.20456
H         -0.55279        1.08193       -2.62699
C          2.95983       -1.30902       -0.38589
H          3.14298       -1.84943       -1.32278
C          2.48693        1.44566       -0.87015
H          2.22236        2.01800        0.02741
C         -2.88759       -1.40991       -0.65104
H         -2.75216       -1.81518        0.35947
C         -2.74337        1.42542       -0.69814
H         -2.81945        1.82026       -1.71877
C          4.12606       -0.35407       -0.07799
H          4.16515       -0.18438        1.00697
H          5.08626       -0.82566       -0.33739
C          3.96065        1.00589       -0.80502
H          4.35013        0.92051       -1.82876
H          4.57139        1.78358       -0.32181
C         -4.22436       -0.65117       -0.73702
H         -4.57134       -0.66524       -1.77955
H         -5.00059       -1.17822       -0.16143
C         -4.08534        0.81693       -0.26100
H         -4.14848        0.85239        0.83542
H         -4.92285        1.43134       -0.62530
C          2.67761       -2.29867        0.74019
H          2.47162       -1.73924        1.66104
H          3.59409       -2.86719        0.95089
C          2.14627        2.24531       -2.12328
H          2.41332        1.65152       -3.00687
H          1.06059        2.38284       -2.18722
C         -2.77808       -2.53734       -1.67818
H         -3.73848       -3.07012       -1.71946
H         -2.65255       -2.10183       -2.67701
C         -2.23794        2.51472        0.24289
H         -3.02816        3.26702        0.37338
H         -2.08962        2.08153        1.23999
C          1.53240       -3.25070        0.44230
H          1.38967       -3.98295        1.24033
H          1.70548       -3.80161       -0.48404
H          0.59284       -2.70956        0.33068
C          2.83897        3.59910       -2.16886
H          3.92497        3.49085       -2.15872
H          2.56863        4.20833       -1.30422
H          2.57480        4.16503       -3.06518
C         -1.66715       -3.52772       -1.37711
H         -1.61398       -4.32545       -2.12163
H         -1.80941       -3.99721       -0.40171
H         -0.69703       -3.03698       -1.35633
C         -0.96105        3.18382       -0.23591
H         -1.09502        3.63488       -1.22088
H         -0.62913        3.97067        0.44527
H         -0.14838        2.46278       -0.31804
Cl        -1.76658       -0.09731        2.36332
Pd        -0.06949       -0.04568        0.89898
