111
-148.55338523
P         -2.75136        1.81719       -0.28170
P          0.15887        0.64863        0.18536
C         -1.83455        2.23816        1.22942
C         -0.54808        1.77418        1.40132
C         -3.90424        3.18921       -0.75129
C         -3.66797        3.65727       -2.17004
C         -2.42007        3.01239        2.21128
H         -3.43265        3.35850        2.08476
C         -1.71076        3.32536        3.35815
H         -2.16833        3.92986        4.12423
C         -0.41989        2.86160        3.52429
H          0.13061        3.10202        4.41890
C          0.16157        2.07782        2.54416
H          1.16039        1.68903        2.66610
Pd        -1.14826        0.95330       -1.70798
Cl        -2.65323        0.93659       -3.36462
Cl         0.53347        0.02885       -2.87957
C         -5.29653        2.56334       -0.52235
C         -3.95351        0.42862       -0.05648
H         -4.31903        4.49520       -2.43030
H         -2.63268        3.97313       -2.31790
H         -3.87188        2.85323       -2.87814
H         -6.01103        2.98499       -1.24432
H         -5.67671        2.84812        0.46975
H         -3.59033       -0.41056       -0.66597
C         -5.25996        1.01239       -0.63210
C         -4.04855        0.02416        1.39839
H         -3.71891        4.01292       -0.04915
H         -6.12185        0.56602       -0.11475
H         -5.36345        0.72141       -1.68794
H         -4.75536       -0.79657        1.54211
H         -3.07830       -0.29512        1.78359
H         -4.38453        0.86334        2.01033
C         -1.31866       -3.53857        1.19675
C         -0.87544       -3.24268       -0.11954
C         -0.43202       -1.95969       -0.38459
C         -0.35791       -1.01527        0.60386
C         -0.65383       -1.33507        1.90277
C         -1.09429       -2.60324        2.24251
O         -2.06105       -4.72112        1.44693
C         -0.86124       -4.25741       -1.27376
H         -0.15007       -1.67202       -1.38279
H         -0.55093       -0.57345        2.65667
C         -1.29613       -2.91833        3.73400
C          4.70485        0.83453        0.02282
C          3.94131        1.64199       -0.85914
C          2.55977        1.59512       -0.76460
C          1.94255        0.73179        0.10134
C          2.67385       -0.12620        0.88084
C          4.05791       -0.12745        0.83952
O          6.11179        1.00906        0.10992
C          4.58932        2.56259       -1.90543
H          1.94180        2.22834       -1.37750
H          2.14178       -0.80479        1.52521
C          4.82937       -1.15542        1.68203
C         -1.03725       -5.70456       -0.78284
C         -1.98128       -3.91025       -2.26893
C          0.50047       -4.18723       -2.00012
C         -2.54307       -2.18176        4.25106
C         -1.44430       -4.42664        3.99837
C         -0.06010       -2.43957        4.52731
C         -3.45687       -4.53291        1.28343
H         -0.29276       -5.94635       -0.02509
H         -2.02072       -5.85459       -0.34367
H         -0.93081       -6.41367       -1.60342
H         -1.98072       -4.60028       -3.11217
H         -2.95907       -3.96142       -1.79370
H         -1.85542       -2.90143       -2.66112
H          1.31886       -4.34693       -1.29866
H          0.56735       -4.95055       -2.77483
H          0.65349       -3.22298       -2.48179
H         -2.70183       -2.38224        5.31030
H         -2.43953       -1.10426        4.12708
H         -3.43610       -2.49479        3.71332
H         -1.48911       -4.63585        5.06691
H         -2.35345       -4.81813        3.54809
H         -0.60127       -4.97481        3.57921
H          0.05736       -1.35819        4.48033
H         -0.14415       -2.71188        5.57909
H          0.84863       -2.89431        4.13381
H         -3.81466       -3.76991        1.97297
H         -3.67391       -4.21402        0.26513
H         -3.97267       -5.47192        1.48517
C          6.51843        1.96916        1.07671
C          3.66538        2.72363       -3.13450
C          4.83100        3.94747       -1.28674
C          5.91546        1.97153       -2.41777
C          5.11681       -0.56325        3.06982
C          3.99929       -2.44804        1.85954
C          6.14576       -1.55886        0.99333
H          2.76652        3.28848       -2.89235
H          4.17456        3.26085       -3.93426
H          3.36441        1.75093       -3.52281
H          5.27957        4.62610       -2.01180
H          3.89322        4.38704       -0.94779
H          5.49612        3.88512       -0.42877
H          5.75961        0.96976       -2.81669
H          6.34081        2.58944       -3.20815
H          6.65290        1.90248       -1.62194
H          5.71768        0.34001        2.99609
H          4.18816       -0.30314        3.57744
H          5.65509       -1.27571        3.69443
H          3.66530       -2.83000        0.89509
H          4.59221       -3.22575        2.34034
H          3.12313       -2.28275        2.48481
H          6.66165       -2.33535        1.55759
H          6.82240       -0.71258        0.90431
H          5.95293       -1.93909       -0.00929
H          7.08474        2.76211        0.58855
H          5.64909        2.39758        1.57707
H          7.16506        1.49385        1.81411
