105
-153.06301588
Cl         0.06395        1.96948        3.06957
Pd        -0.45208        1.32348        0.97269
P         -1.06283        0.54293       -1.15830
N         -0.52321       -0.91406       -1.98715
C          0.29491       -1.97552       -1.60635
C          0.35329       -2.47431       -0.28088
C          1.23802       -3.53392        0.01681
C          1.27035       -4.08761        1.42288
C          2.44533       -5.03398        1.71912
C          2.67926       -6.00570        0.55982
C          2.97987       -5.23455       -0.73297
C          2.01843       -4.10294       -0.99392
C          1.90676       -3.62518       -2.29289
C          1.06120       -2.59107       -2.59486
H          1.00063       -2.21877       -3.60275
H          2.50797       -4.07112       -3.06711
H          3.99655       -4.82578       -0.69207
H          3.48989       -6.70974        0.79588
H          3.35500       -4.44262        1.88354
H          1.29458       -3.25057        2.12934
C         -0.65375       -2.06992        0.73230
C         -0.23223       -1.47558        1.95407
C         -1.16360       -1.34216        2.98796
C         -2.45629       -1.76897        2.83339
C         -2.88872       -2.34931        1.64734
C         -4.31206       -2.84884        1.58300
C         -4.59882       -3.78909        0.40224
C         -3.93770       -3.27678       -0.87958
C         -2.41674       -3.15397       -0.70135
C         -1.99295       -2.48349        0.58357
H         -1.95571       -4.14782       -0.74344
H         -4.35426       -2.29490       -1.13566
H         -5.68123       -3.91478        0.25713
H         -4.98526       -1.98601        1.54024
H         -3.15690       -1.65852        3.64377
H         -0.85334       -0.87983        3.90855
N          1.07035       -0.98846        2.14443
P          1.64142        0.24449        1.02232
C          2.62029       -0.30171       -0.36366
C          2.44650        0.32686       -1.57166
C          3.23759       -0.03093       -2.64802
C          4.21740       -1.00544       -2.50952
C          4.38457       -1.61700       -1.27346
C          3.59056       -1.25968       -0.19846
H          3.71627       -1.72558        0.76605
H          5.13579       -2.37964       -1.15972
C          5.03943       -1.42265       -3.67845
H          3.09386        0.44186       -3.60439
H          1.68370        1.08140       -1.66789
C          2.59088        1.53544        1.83094
C          3.31286        1.25527        2.96601
C          4.04405        2.25754        3.57771
C          4.06336        3.54157        3.04941
C          3.32796        3.80256        1.90100
C          2.59829        2.79928        1.28940
H          2.02819        2.99810        0.39507
H          3.32633        4.79790        1.49066
C          4.82333        4.62885        3.72597
H          4.60306        2.04808        4.47366
H          3.30600        0.25519        3.36832
H          1.22866       -0.56973        3.05191
H         -0.77920       -0.83067       -2.96315
C         -0.63913        1.95592       -2.19444
C          0.04812        1.76750       -3.37132
C          0.38798        2.85301       -4.15758
C          0.03099        4.13926       -3.77765
C         -0.66095        4.31285       -2.58734
C         -0.99553        3.22463       -1.80473
H         -1.53352        3.35855       -0.88174
H         -0.93358        5.30662       -2.27543
C          0.42013        5.31245       -4.60820
H          0.93722        2.70706       -5.07206
H          0.33501        0.77303       -3.66815
C         -2.85695        0.45788       -1.14410
C         -3.50153        0.56630       -2.35393
C         -4.88287        0.50334       -2.40858
C         -5.62829        0.34601       -1.24833
C         -4.95935        0.23275       -0.03811
C         -3.57849        0.27668        0.01077
H         -3.05808        0.17906        0.94992
H         -5.52925        0.11859        0.86789
C         -7.11356        0.25676       -1.30063
H         -5.38989        0.58070       -3.35512
H         -2.92055        0.70179       -3.25309
Cl        -2.30294        2.60738        1.00731
H          2.97198       -5.91622       -1.59317
H          2.27809       -5.58186        2.65725
H          1.78354       -6.62317        0.41626
H          0.32184       -4.60394        1.61244
H         -4.18026       -3.92872       -1.73069
H         -1.99578       -2.59845       -1.54643
H         -4.54881       -3.35198        2.52938
H         -4.21451       -4.79097        0.63190
H          4.54503       -2.22153       -4.23294
H          5.20245       -0.58872       -4.36259
H          6.01759       -1.78776       -3.36235
H          5.17731        5.36852        3.00650
H          4.19597        5.14239        4.45574
H          5.69477        4.23361        4.24982
H         -0.30029        6.12497       -4.50396
H          1.39905        5.69022       -4.30995
H          0.46908        5.04771       -5.66537
H         -7.56580        0.73805       -0.43233
H         -7.50788        0.74561       -2.19254
H         -7.43820       -0.78465       -1.31581
