100
-131.98417590
C         -1.64448        3.77434       -1.47742
C         -2.36695        2.49833       -1.47952
C         -0.25210        3.49974       -1.54605
C         -0.04264        2.02866       -1.60920
C          1.12915        1.44167       -2.31762
C         -1.41708        1.42596       -1.56647
C         -1.82035        0.01730       -1.97560
C         -0.85757       -0.70363       -2.89547
Cl         0.98213       -0.49945        2.79591
Cl        -1.86472       -1.76240        2.30413
C          3.24739        0.42036       -3.83883
C          2.50860        1.48378       -4.31889
C          2.94569       -0.12293       -2.59840
C          1.47586        1.99105       -3.57121
C          1.89906        0.35727       -1.84703
H         -3.45089        2.38829       -1.54128
H          0.53727        4.24778       -1.64863
H          0.05004       -0.97953       -2.35955
H         -1.28982       -1.62485       -3.29349
H         -0.57268       -0.07762       -3.74456
H          4.06688        0.02569       -4.41694
H          2.74482        1.91532       -5.27811
H          3.56456       -0.91613       -2.21323
H          0.89422        2.81473       -3.94794
H         -2.10237        4.76666       -1.48297
P          1.75470       -0.30552       -0.16951
H         -2.79060        0.09392       -2.48266
P         -2.15779       -1.00348       -0.48354
H         -3.46158       -3.01729       -0.30425
C         -1.66828       -3.74405       -1.22855
C         -2.73481       -2.66754       -1.03821
C         -1.20616       -4.30781        0.11736
H         -3.21549        0.79416        0.64044
C         -4.90102       -0.04617       -0.39454
C         -3.58123       -0.19592        0.37850
H         -4.65541        0.24579       -1.43012
C         -5.70941       -1.34533       -0.44480
H          3.60546       -1.82263       -0.40730
H          2.53375        0.78031        1.85241
C          3.53309        3.26509        1.17938
C          2.70704        2.29022        0.32099
C          2.86354        0.84399        0.81034
C          4.34878        0.44744        0.75794
C          5.21296        1.40929        1.60004
C          5.02187        2.87180        1.15425
H          3.16604        3.23892        2.21287
H          3.39211        4.30127        0.84132
H          3.05667        2.34585       -0.71737
H          1.65016        2.57411        0.28155
H          4.49106       -0.58622        1.09556
H          4.68277        0.46751       -0.28619
H          4.93350        1.31354        2.65669
H          6.27282        1.12258        1.55065
H          5.41311        2.99538        0.13653
H          5.61533        3.55198        1.78155
C          2.69574       -4.30439       -1.10523
C          1.92905       -2.96636       -1.08278
C          2.56651       -1.98374       -0.09808
C          2.58944       -2.59566        1.31055
C          3.38051       -3.91790        1.31823
C          2.78660       -4.91848        0.30695
H          3.70747       -4.13532       -1.49415
H          2.22533       -5.00764       -1.80670
H          0.90150       -3.14203       -0.75731
H          1.85378       -2.52771       -2.08665
H          2.98717       -1.88173        2.04333
H          1.55969       -2.79137        1.63072
H          4.42727       -3.71605        1.05931
H          3.40553       -4.34993        2.32843
H          1.78640       -5.21902        0.64099
H          3.37698       -5.84553        0.28803
H         -0.81339       -3.27191       -1.74007
C         -2.18476       -4.87213       -2.12711
H         -3.75782       -0.72312        1.31580
C         -5.74981        1.07290        0.21988
H         -3.27462       -2.50170       -1.97247
H         -0.43706       -5.07000       -0.01176
H         -2.03988       -4.77520        0.64198
H         -0.81092       -3.53224        0.77213
H         -1.42313       -5.63755       -2.28466
H         -3.05034       -5.35705       -1.67464
H         -2.49116       -4.49821       -3.10544
H         -5.21732       -2.12039       -1.02912
H         -5.87357       -1.73668        0.55966
H         -6.69007       -1.18128       -0.89464
H         -5.99622        0.84103        1.25649
H         -5.22461        2.02878        0.21263
H         -6.68854        1.20625       -0.32004
Fe        -1.07059        2.62396        0.11351
C         -2.43875        3.03805        1.60129
C         -1.59196        4.18778        1.34210
C         -0.21316        3.78615        1.54694
C         -0.21723        2.38999        1.93927
C         -1.58945        1.93292        1.99904
H         -3.53081        3.03662        1.58980
H         -1.93498        5.19072        1.07694
H          0.66184        4.43680        1.47461
H          0.64338        1.80377        2.26139
H         -1.90834        0.94380        2.33561
Pd        -0.28144       -0.85034        0.95445
