111
-148.55305154
P         -2.43150        2.14326       -0.51174
P         -0.04987        0.29830        0.47120
C         -1.92187        2.18652        1.22262
C         -0.87018        1.40046        1.63894
C         -2.47503        3.85272       -1.21619
C         -1.26964        4.12290       -2.09068
C         -2.56462        3.01326        2.12110
H         -3.37880        3.63427        1.78408
C         -2.15680        3.03985        3.44371
H         -2.65891        3.68301        4.14787
C         -1.10671        2.24450        3.86137
H         -0.79001        2.26432        4.89116
C         -0.46073        1.42189        2.95551
H          0.35850        0.79227        3.26540
Pd        -1.10970        0.59262       -1.57351
Cl        -1.84700        1.19077       -3.60289
Cl         0.27139       -0.97975       -2.39888
C         -3.82892        3.88798       -1.94791
C         -4.18714        1.62788       -0.79868
H         -0.33916        4.01448       -1.52817
H         -1.23096        3.42199       -2.92567
H         -1.29775        5.13178       -2.50881
H         -3.67155        3.59225       -2.99437
H         -4.21856        4.91666       -1.98607
H         -4.15060        0.89088       -1.61232
C         -4.85730        2.92596       -1.28712
C         -4.80785        1.02290        0.44184
H         -2.48913        4.53541       -0.35638
H         -5.32773        3.42594       -0.42941
H         -5.67994        2.69453       -1.98062
H         -4.24901        0.14624        0.77513
H         -4.81346        1.73947        1.26453
H         -5.84147        0.71775        0.26299
C         -1.20506       -4.03578        1.23451
C          0.06932       -3.74930        0.68095
C          0.40914       -2.42357        0.46690
C         -0.43019       -1.40973        0.84620
C         -1.61896       -1.67838        1.47397
C         -2.01689       -2.98112        1.72497
O         -1.69028       -5.37042        1.25480
C          1.05609       -4.84711        0.25483
H          1.32380       -2.16363       -0.03675
H         -2.24273       -0.84810        1.75666
C         -3.33000       -3.22859        2.48379
C          4.36063        1.36476        0.07498
C          3.42226        1.82883       -0.88134
C          2.08991        1.49662       -0.70496
C          1.69423        0.66578        0.31071
C          2.61231        0.12446        1.17283
C          3.96042        0.42610        1.06044
O          5.68749        1.87138        0.06933
C          3.81950        2.69255       -2.08870
H          1.33710        1.89025       -1.36578
H          2.25713       -0.53321        1.94698
C          4.96009       -0.23212        2.02471
C          0.82150       -5.18673       -1.22497
C          2.51282       -4.36304        0.42834
C          0.90255       -6.10981        1.12223
C         -3.60730       -2.07985        3.48062
C         -4.49242       -3.30083        1.48199
C         -3.25809       -4.52792        3.30644
C         -2.41381       -5.73749        0.08653
H          0.96158       -4.30420       -1.84881
H          1.51534       -5.95506       -1.56489
H         -0.19047       -5.54941       -1.38984
H          2.68024       -4.01123        1.44571
H          3.21573       -5.17296        0.23461
H          2.75711       -3.55645       -0.26105
H          1.65093       -6.85770        0.86125
H          1.01976       -5.86654        2.17771
H         -0.07544       -6.56572        0.99253
H         -3.83155       -1.14513        2.96928
H         -4.46572       -2.31297        4.11019
H         -2.74908       -1.91658        4.13197
H         -4.56350       -2.37897        0.90560
H         -4.35717       -4.11964        0.77956
H         -5.44153       -3.45206        1.99557
H         -3.14218       -5.39784        2.66476
H         -2.41069       -4.50240        3.99071
H         -4.16470       -4.67052        3.89398
H         -1.90666       -6.56026       -0.41695
H         -3.41246       -6.07295        0.36604
H         -2.49152       -4.88886       -0.59435
C          5.85816        3.05157        0.84425
C          3.72353        4.17739       -1.70766
C          5.24432        2.35719       -2.56530
C          2.87159        2.42554       -3.28132
C          4.48139       -1.64504        2.42502
C          6.34196       -0.40254        1.36697
C          5.08030        0.62628        3.29284
H          2.71067        4.43028       -1.39489
H          4.39356        4.41738       -0.88546
H          3.98510        4.81466       -2.55200
H          5.98323        2.59154       -1.80309
H          5.33045        1.29652       -2.79886
H          5.50218        2.92384       -3.45964
H          2.80899        1.35889       -3.49527
H          1.86536        2.79473       -3.08931
H          3.22911        2.92717       -4.18016
H          4.28953       -2.24850        1.53892
H          5.23814       -2.15620        3.01974
H          3.57276       -1.61177        3.02402
H          7.02701       -0.93470        2.02652
H          6.25783       -0.96646        0.43858
H          6.79233        0.55879        1.13329
H          5.77796        0.18086        4.00159
H          4.11324        0.72276        3.78590
H          5.43297        1.62790        3.05784
H          6.58871        2.86978        1.63231
H          6.23362        3.85433        0.20985
H          4.91014        3.35377        1.29102
