105
-153.06700773
Cl         0.00893        1.88170        3.04158
Pd        -0.46884        1.25440        0.92128
P         -1.14076        0.48674       -1.18803
N         -0.75388       -1.04014       -1.97503
C          0.18602       -2.00745       -1.61830
C          0.32988       -2.47566       -0.28717
C          1.30438       -3.45528       -0.00314
C          1.42996       -3.97424        1.40976
C          2.26276       -5.25796        1.54882
C          3.53684       -5.17703        0.70349
C          3.18873       -4.98693       -0.78010
C          2.11353       -3.95813       -1.02611
C          1.91837       -3.51743       -2.32884
C          0.97146       -2.57206       -2.62239
H          0.84286       -2.23017       -3.63455
H          2.53265       -3.92447       -3.11415
H          4.08481       -4.70386       -1.34728
H          4.14669       -4.33158        1.04617
H          2.50647       -5.45419        2.60253
H          1.87390       -3.18496        2.02702
C         -0.66868       -2.11722        0.74863
C         -0.24424       -1.53762        1.97606
C         -1.18090       -1.39391        3.00403
C         -2.48410       -1.78103        2.83226
C         -2.92013       -2.34073        1.63772
C         -4.36146       -2.78268        1.54785
C         -4.81971       -3.16713        0.13199
C         -3.74148       -3.98368       -0.58456
C         -2.43813       -3.17933       -0.69490
C         -2.01129       -2.51402        0.59144
H         -1.62657       -3.82753       -1.04835
H         -4.08939       -4.30552       -1.57639
H         -5.02689       -2.25848       -0.44650
H         -5.00031       -1.98707        1.95120
H         -3.19045       -1.65507        3.63537
H         -0.86876       -0.94371        3.93000
N          1.05756       -1.04990        2.16942
P          1.62898        0.19359        1.05777
C          2.60897       -0.32548       -0.33916
C          2.35380        0.23880       -1.56416
C          3.14809       -0.08902       -2.64736
C          4.21156       -0.96996       -2.50049
C          4.45944       -1.51789       -1.24832
C          3.66314       -1.18887       -0.16593
H          3.85569       -1.60058        0.81209
H          5.27721       -2.20741       -1.12682
C          5.04060       -1.35784       -3.67457
H          2.94202        0.33430       -3.61538
H          1.52778        0.92169       -1.66745
C          2.56780        1.48350        1.87983
C          3.28019        1.20307        3.02098
C          4.00538        2.20546        3.63958
C          4.01847        3.49273        3.11908
C          3.30754        3.74963        1.95447
C          2.58362        2.74628        1.33609
H          2.02793        2.94312        0.43226
H          3.32293        4.74106        1.53511
C          4.81472        4.56764        3.77331
H          4.56677        1.99284        4.53331
H          3.27395        0.20192        3.42048
H          1.21450       -0.63751        3.07996
H         -1.02447       -0.96240       -2.94732
C         -0.64744        1.84413       -2.26119
C         -0.89113        3.14112       -1.87811
C         -0.49832        4.18931       -2.68800
C          0.13805        3.94594       -3.89723
C          0.38056        2.63078       -4.26912
C         -0.01661        1.58537       -3.45584
H          0.18324        0.56693       -3.74321
H          0.88663        2.43052       -5.19812
C          0.59049        5.07401       -4.75764
H         -0.68192        5.20544       -2.38318
H         -1.38831        3.32698       -0.94082
C         -2.93483        0.52894       -1.10856
C         -3.62505        0.76349       -2.27418
C         -5.00837        0.79366       -2.26215
C         -5.70875        0.58733       -1.08156
C         -4.99356        0.36182        0.08591
C         -3.61210        0.31825        0.06765
H         -3.05629        0.13274        0.97241
H         -5.52625        0.22395        1.01113
C         -7.19628        0.64594       -1.05741
H         -5.55232        0.98337       -3.17165
H         -3.07818        0.92649       -3.18983
Cl        -2.22281        2.67406        0.99972
H          2.86110       -5.94202       -1.20778
H          1.66427       -6.11704        1.22061
H          4.16088       -6.07005        0.84986
H          0.42376       -4.13479        1.81703
H         -3.55228       -4.90756       -0.02371
H         -2.55322       -2.40479       -1.46157
H         -4.50200       -3.63618        2.22191
H         -5.77033       -3.71808        0.16343
H          4.61441       -2.22639       -4.17859
H          5.10192       -0.54458       -4.39907
H          6.05814       -1.60963       -3.37247
H          4.35648        5.54555        3.61925
H          4.88852        4.40349        4.84924
H          5.82668        4.60189        3.36748
H          0.58682        4.79168       -5.81138
H         -0.06203        5.94102       -4.64547
H          1.60414        5.37924       -4.49436
H         -7.53982        1.65247       -0.81511
H         -7.61790        0.36972       -2.02487
H         -7.60406       -0.03798       -0.31159
