105
-153.06805699
Cl         0.39974        3.27262        2.33758
Pd        -0.16452        1.81527        0.72099
P         -0.72996        0.45426       -1.13968
N          0.40908       -0.81921       -1.55978
C          0.46998       -2.20894       -1.35412
C         -0.03016       -2.86351       -0.19594
C          0.28580       -4.22044        0.02317
C          0.02658       -4.84625        1.37290
C         -0.16802       -6.36576        1.28846
C          1.03591       -7.00848        0.59074
C          1.23685       -6.43378       -0.82393
C          0.95924       -4.95339       -0.95838
C          1.39333       -4.30432       -2.10751
C          1.18570       -2.96093       -2.28475
H          1.56874       -2.46303       -3.15880
H          1.92372       -4.86880       -2.85579
H          2.26078       -6.62993       -1.16660
H          1.93756       -6.82695        1.18924
H         -0.33025       -6.80143        2.28445
H          0.88652       -4.62568        2.01705
C         -0.70950       -2.09316        0.87270
C          0.06056       -1.16560        1.61562
C         -0.53825       -0.48238        2.67271
C         -1.85522       -0.70014        2.98464
C         -2.62609       -1.60940        2.26781
C         -4.06098       -1.81689        2.67231
C         -4.59400       -3.19379        2.25296
C         -4.35037       -3.41987        0.75822
C         -2.85514       -3.32234        0.40236
C         -2.05821       -2.31412        1.20366
H         -2.39970       -4.31053        0.52132
H         -4.91116       -2.66792        0.19267
H         -5.66029       -3.29687        2.49972
H         -4.67117       -1.02717        2.21810
H         -2.30978       -0.15579        3.79486
H          0.04314        0.23553        3.22323
N          1.37744       -0.91257        1.23093
P          1.89041        0.76009        1.06660
C          2.73418        1.01320       -0.49361
C          2.43737        2.12779       -1.24192
C          2.94962        2.25236       -2.51942
C          3.76109        1.26204       -3.05459
C          4.05789        0.14940       -2.27921
C          3.55140        0.02855       -0.99782
H          3.76394       -0.84526       -0.40214
H          4.67945       -0.62809       -2.68977
C          4.26186        1.36913       -4.45268
H          2.70110        3.11183       -3.11848
H          1.78909        2.88865       -0.83689
C          2.84962        1.33015        2.46069
C          2.90308        0.54949        3.58992
C          3.62664        0.97921        4.68806
C          4.29402        2.19681        4.65940
C          4.23592        2.96433        3.50330
C          3.51228        2.53240        2.40630
H          3.45519        3.12970        1.51005
H          4.75890        3.90472        3.46838
C          5.09145        2.65288        5.83147
H          3.67689        0.37012        5.57435
H          2.38425       -0.39573        3.60126
H          1.67086       -1.37243        0.37625
H          1.27747       -0.33158       -1.74884
C         -0.58795        1.64665       -2.47843
C         -1.03742        2.93830       -2.34549
C         -0.88894        3.83250       -3.38798
C         -0.30002        3.43516       -4.58079
C          0.14093        2.12459       -4.70253
C         -0.00853        1.23361       -3.65498
H          0.33496        0.21614       -3.74670
H          0.60872        1.80791       -5.61903
C         -0.10604        4.40640       -5.69264
H         -1.22845        4.84846       -3.28001
H         -1.50340        3.24085       -1.42342
C         -2.38244       -0.22146       -1.30894
C         -3.46366        0.23962       -0.59736
C         -4.72705       -0.25288       -0.86128
C         -4.92071       -1.20860       -1.84975
C         -3.82175       -1.65243       -2.57183
C         -2.55758       -1.15809       -2.30072
H         -1.70040       -1.49420       -2.86290
H         -3.96156       -2.38437       -3.34879
C         -6.28355       -1.72443       -2.15666
H         -5.57495        0.11380       -0.30835
H         -3.32201        1.01415        0.13534
Cl        -2.20545        2.74988        0.61728
H          0.58846       -6.96688       -1.52963
H         -1.07854       -6.58373        0.71649
H          0.92444       -8.10134        0.55515
H         -0.82424       -4.36934        1.87117
H         -4.76352       -4.38739        0.44024
H         -2.73480       -3.08870       -0.66150
H         -4.15780       -1.68027        3.75691
H         -4.07870       -3.97379        2.82757
H          3.56300        0.90457       -5.14975
H          4.38706        2.41199       -4.74735
H          5.22801        0.87503       -4.56409
H          5.09255        3.74117        5.90666
H          4.68380        2.25795        6.76306
H          6.12689        2.31975        5.74889
H          0.85973        4.90613       -5.60560
H         -0.14072        3.90715       -6.66198
H         -0.88313        5.17198       -5.68703
H         -6.96184       -1.57712       -1.31505
H         -6.70564       -1.21147       -3.02182
H         -6.25749       -2.79248       -2.37767
