100
-131.97740419
C         -1.61648        3.89029       -1.37156
C         -2.33817        2.61476       -1.45020
C         -0.22267        3.60914       -1.38085
C         -0.01044        2.14154       -1.52299
C          1.15973        1.60049       -2.27287
C         -1.38853        1.54343       -1.55544
C         -1.77936        0.15100       -2.01636
C         -0.87320       -0.44740       -3.07379
Cl         1.12308       -0.46817        2.73144
Cl        -1.72937       -1.60745        2.35038
C          3.23880        0.64571       -3.89032
C          2.50012        1.73964       -4.29671
C          2.95785        0.03938       -2.67441
C          1.48608        2.21329       -3.50254
C          1.93295        0.48979       -1.87621
H         -3.42097        2.50659       -1.54227
H          0.57161        4.35847       -1.41919
H          0.07768       -0.75157       -2.63857
H         -1.31633       -1.33039       -3.53985
H         -0.66320        0.27216       -3.86855
H          4.04212        0.27562       -4.50613
H          2.72028        2.21990       -5.23639
H          3.57390       -0.78096       -2.34484
H          0.90160        3.05783       -3.82473
H         -2.07176        4.88362       -1.34512
P          1.82200       -0.25782       -0.23505
H         -2.78507        0.24126       -2.44213
P         -1.98866       -0.99086       -0.57544
H         -2.99929       -2.86790       -1.73394
C         -1.86339       -3.81725       -0.15097
C         -2.05663       -2.72365       -1.20674
C         -3.08788       -3.98463        0.74951
H         -3.63178        0.59343        0.17049
C         -4.86554       -1.09621       -0.35043
C         -3.58020       -0.49408        0.22356
H         -4.76332       -2.19445       -0.32591
C         -6.06199       -0.71663        0.52818
H          3.55648       -1.88096       -0.64078
H          2.74742        0.60394        1.83133
C          3.59036        3.19375        1.37520
C          2.70441        2.29313        0.49545
C          2.96839        0.80867        0.77852
C          4.44878        0.48246        0.52859
C          5.36676        1.37686        1.38811
C          5.07941        2.87170        1.14569
H          3.33915        3.02917        2.43034
H          3.38148        4.25561        1.18374
H          2.92714        2.49262       -0.56002
H          1.64021        2.52653        0.61390
H          4.65018       -0.57868        0.72367
H          4.67089        0.63636       -0.53401
H          5.20698        1.14454        2.44838
H          6.42390        1.14721        1.19419
H          5.35161        3.13063        0.11470
H          5.71665        3.50005        1.78397
C          2.34893       -4.26724       -1.37278
C          1.74803       -2.85023       -1.27973
C          2.52582       -1.98234       -0.28280
C          2.56891       -2.65002        1.10045
C          3.18222       -4.06099        1.01704
C          2.40395       -4.93498        0.01477
H          3.36387       -4.20234       -1.78425
H          1.78428       -4.88552       -2.08442
H          0.70729       -2.91186       -0.94643
H          1.71287       -2.36959       -2.26675
H          3.10930       -2.01862        1.81831
H          1.54941       -2.72756        1.49430
H          4.22869       -3.98334        0.69709
H          3.21159       -4.53304        2.00906
H          1.38250       -5.08660        0.38549
H          2.84388       -5.94006       -0.05201
H         -1.01248       -3.51480        0.48566
C         -1.51020       -5.15210       -0.81494
H         -3.50640       -0.74260        1.28198
C         -5.11628       -0.68505       -1.80173
H         -1.27227       -2.80591       -1.95952
H         -2.91895       -4.74886        1.50975
H         -3.95697       -4.29168        0.16726
H         -3.33916       -3.05946        1.26651
H         -1.32181       -5.93048       -0.07387
H         -2.32952       -5.49257       -1.44885
H         -0.62385       -5.06739       -1.44477
H         -6.20223        0.36479        0.53778
H         -6.98698       -1.16554        0.16286
H         -5.91846       -1.03833        1.56099
H         -5.13402        0.40092       -1.89846
H         -4.35174       -1.07396       -2.47428
H         -6.07793       -1.05892       -2.15726
Fe        -1.11324        2.66326        0.16119
C         -1.78949        4.11448        1.48049
C         -0.42113        3.73862        1.78376
C         -0.40478        2.31772        2.06718
C         -1.75499        1.81132        1.92920
C         -2.60765        2.91634        1.54331
H         -2.14385        5.12356        1.25810
H          0.43350        4.41675        1.84155
H          0.45079        1.72908        2.40069
H         -2.06329        0.78615        2.13995
H         -3.68907        2.86988        1.39371
Pd        -0.18243       -0.79615        0.90646
