100
-131.98226009
C         -1.54645        3.84559       -1.48852
C         -2.30894        2.59281       -1.51719
C         -0.16302        3.53133       -1.55195
C         -0.00576        2.05208       -1.60472
C          1.15338        1.43580       -2.31302
C         -1.39829        1.48992       -1.61541
C         -1.83497        0.09143       -2.01383
C         -0.91778       -0.61923       -2.98764
Cl         0.96050       -0.51036        2.81234
Cl        -1.88139       -1.80541        2.26084
C          3.24923        0.36788       -3.83364
C          2.52456        1.43754       -4.32100
C          2.94349       -0.15948       -2.58739
C          1.50293        1.96732       -3.57379
C          1.90675        0.34307       -1.83680
H         -3.39398        2.52134       -1.60289
H          0.65175        4.25374       -1.63817
H          0.01291       -0.90649       -2.49890
H         -1.37057       -1.53215       -3.38132
H         -0.66839        0.02032       -3.83772
H          4.06058       -0.04443       -4.41093
H          2.76343        1.85659       -5.28509
H          3.55178       -0.95859       -2.19779
H          0.93286        2.79674       -3.95558
H         -1.97367        4.85156       -1.49209
P          1.74972       -0.30501       -0.15666
H         -2.83066        0.18290       -2.46864
P         -2.12513       -0.95276       -0.52260
H         -3.47594       -2.95770       -0.44627
C         -1.66898       -3.67398       -1.34614
C         -2.72546       -2.59006       -1.14327
C         -1.25583       -4.29564       -0.00945
H         -3.33234        0.92854        0.31491
C         -4.93687       -0.43030       -0.22254
C         -3.53818       -0.14026        0.35929
H         -4.79820       -0.78603       -1.25916
C         -5.66198       -1.51965        0.57576
H          3.59003       -1.83904       -0.38667
H          2.52215        0.77109        1.87152
C          3.52756        3.25983        1.21023
C          2.69775        2.29011        0.34956
C          2.85398        0.84109        0.83035
C          4.33866        0.44317        0.77517
C          5.20509        1.40013        1.62041
C          5.01564        2.86451        1.18045
H          3.16261        3.22998        2.24437
H          3.38755        4.29767        0.87685
H          3.04255        2.35104       -0.69009
H          1.64126        2.57586        0.31768
H          4.47987       -0.59220        1.10808
H          4.67149        0.46700       -0.26931
H          4.92625        1.30063        2.67688
H          6.26448        1.11202        1.56903
H          5.40483        2.99114        0.16232
H          5.61154        3.54144        1.80895
C          2.64531       -4.31436       -1.07569
C          1.89753       -2.96584       -1.05452
C          2.55026       -1.98873       -0.07462
C          2.57028       -2.59766        1.33567
C          3.34174       -3.93143        1.34393
C          2.72832       -4.92562        0.33805
H          3.65903       -4.16003       -1.46550
H          2.16464       -5.01245       -1.77535
H          0.86934       -3.12654       -0.72353
H          1.82232       -2.52889       -2.05923
H          2.98110       -1.88783        2.06516
H          1.53924       -2.77836        1.66041
H          4.39016       -3.74587        1.07962
H          3.36493       -4.36102        2.35522
H          1.72321       -5.20637        0.67510
H          3.30184       -5.86322        0.32137
H         -0.79307       -3.19410       -1.81345
C         -2.17316       -4.75873       -2.30302
H         -3.51037       -0.42042        1.41223
C         -5.79088        0.84106       -0.27145
H         -3.24810       -2.38747       -2.08010
H         -0.87769       -3.54991        0.68900
H         -0.48845       -5.05889       -0.14342
H         -2.11011       -4.77628        0.46803
H         -1.41714       -5.52810       -2.46815
H         -3.05803       -5.24862       -1.89545
H         -2.44539       -4.34279       -3.27446
H         -5.07193       -2.43051        0.66690
H         -5.87091       -1.17265        1.58826
H         -6.61671       -1.78264        0.11761
H         -5.92393        1.25178        0.72994
H         -5.32984        1.61504       -0.88556
H         -6.78279        0.64012       -0.67921
Fe        -1.02961        2.66589        0.09484
C         -2.45847        3.08382        1.53918
C         -1.59404        4.23278        1.34574
C         -0.22489        3.81722        1.58764
C         -0.24329        2.41238        1.94564
C         -1.61721        1.95715        1.89414
H         -3.54860        3.08004        1.46853
H         -1.92130        5.24570        1.10085
H          0.65324        4.46717        1.57145
H          0.60079        1.81003        2.28275
H         -1.95274        0.96291        2.19664
Pd        -0.28544       -0.85400        0.95979
