111
-148.55345556
P         -1.53701        2.86620       -0.01680
P         -0.57892       -0.11234        0.42899
C         -1.55878        2.14984        1.65198
C         -1.21438        0.82677        1.83283
C         -0.23142        4.17199       -0.13260
C          0.82443        3.78162       -1.14491
C         -1.88572        2.92860        2.74385
H         -2.11263        3.97260        2.60391
C         -1.89438        2.37176        4.01108
H         -2.15382        2.97919        4.86277
C         -1.56464        1.04158        4.18662
H         -1.56571        0.60965        5.17386
C         -1.21275        0.26935        3.09451
H         -0.91769       -0.76039        3.21840
Pd        -1.42376        1.02354       -1.41000
Cl        -2.65517        2.05230       -2.96722
Cl        -0.97137       -0.85649       -2.56452
C         -1.02117        5.44368       -0.50559
C         -3.03904        3.88451       -0.38610
H          0.37533        3.61823       -2.12675
H          1.58335        4.56032       -1.25090
H          1.32881        2.85644       -0.85978
H         -0.91129        5.62058       -1.58425
H         -0.57883        6.32557       -0.01833
H         -3.24718        3.73318       -1.45313
C         -2.53241        5.31983       -0.15890
C         -4.24095        3.48340        0.44198
H          0.19882        4.26219        0.87336
H         -2.69622        5.59442        0.89204
H         -3.13070        6.03371       -0.74570
H         -4.05298        3.62510        1.50642
H         -5.11889        4.07967        0.18336
H         -4.49041        2.43066        0.29110
C         -0.78378       -4.63682        0.87508
C          0.20348       -3.89658        1.57475
C          0.23698       -2.52270        1.40145
C         -0.70792       -1.88267        0.64252
C         -1.73022       -2.58051        0.05610
C         -1.81601       -3.95765        0.17831
O         -0.71579       -6.05506        0.83824
C          1.25308       -4.55789        2.48169
H          1.01900       -1.92991        1.84496
H         -2.44810       -2.03238       -0.52923
C         -2.98756       -4.69423       -0.48950
C          3.70835        1.25538       -0.27174
C          3.07558        0.40383       -1.21596
C          1.77324        0.00710       -0.96783
C          1.13383        0.35633        0.19102
C          1.78105        1.07648        1.15983
C          3.08497        1.50570        0.97989
O          4.91347        1.92163       -0.61269
C          3.74030       -0.09820       -2.50775
H          1.21916       -0.54943       -1.70393
H          1.24755        1.32139        2.06197
C          3.76795        2.22668        2.15344
C          0.69447       -5.83040        3.14409
C          2.50136       -4.89489        1.65196
C          1.66423       -3.60113        3.62447
C         -3.37161       -5.95965        0.29856
C         -4.24369       -3.79479       -0.53584
C         -2.59743       -5.06240       -1.92921
C          0.06714       -6.56908       -0.23215
H          1.41712       -6.26140        3.83655
H         -0.21539       -5.60567        3.69963
H          0.45402       -6.59050        2.40518
H          3.27004       -5.35508        2.27228
H          2.26442       -5.58346        0.84446
H          2.92195       -3.99389        1.20578
H          2.30958       -4.10916        4.34076
H          2.21717       -2.74011        3.25192
H          0.78754       -3.23997        4.16156
H         -2.56111       -6.68402        0.30652
H         -3.60716       -5.71073        1.33273
H         -4.24269       -6.44537       -0.14051
H         -5.10794       -4.35570       -0.89086
H         -4.48005       -3.40748        0.45486
H         -4.11126       -2.95182       -1.21235
H         -3.41520       -5.57239       -2.43762
H         -2.34906       -4.16821       -2.50056
H         -1.72970       -5.71725       -1.94752
H         -0.54729       -7.21862       -0.85537
H          0.46505       -5.75388       -0.83785
H          0.89058       -7.16094        0.16709
C          4.69129        3.17616       -1.23597
C          3.48503       -1.61460       -2.65759
C          3.12905        0.63625       -3.71294
C          5.26524        0.10350       -2.49939
C          3.16934        3.63523        2.30413
C          3.52177        1.43170        3.45522
C          5.29209        2.32939        1.97129
H          3.83808       -2.15250       -1.77818
H          2.42687       -1.83647       -2.78525
H          4.00693       -2.01233       -3.52753
H          3.29982        1.70910       -3.64832
H          3.56508        0.28238       -4.64668
H          2.05270        0.47430       -3.76300
H          5.52315        1.15983       -2.49739
H          5.70793       -0.35007       -1.61330
H          5.72585       -0.34627       -3.37864
H          3.32209        4.22693        1.40359
H          2.09697        3.58427        2.49001
H          3.62861        4.16641        3.13735
H          4.05914        1.87908        4.29101
H          2.46680        1.40944        3.72345
H          3.86382        0.40270        3.34753
H          5.72463        1.34549        1.79309
H          5.76575        2.75435        2.85594
H          5.54705        2.96343        1.12561
H          5.65031        3.61575       -1.51068
H          4.08455        3.04767       -2.13081
H          4.17175        3.84678       -0.55379
