111
-148.55349283
P         -2.26708        2.49674       -0.24337
P         -0.16333        0.23448        0.47576
C         -1.82611        2.19795        1.48530
C         -0.94500        1.18567        1.79500
C         -1.94126        4.25055       -0.72598
C         -0.78528        4.32213       -1.70022
C         -2.37843        2.96490        2.49069
H         -3.05345        3.76648        2.23778
C         -2.05955        2.70038        3.81152
H         -2.49203        3.29654        4.59839
C         -1.19216        1.67047        4.12197
H         -0.94769        1.46096        5.15032
C         -0.63239        0.91093        3.11013
H          0.04765        0.10414        3.33561
Pd        -1.24230        0.84834       -1.49135
Cl        -2.51363        1.47269       -3.22747
Cl        -0.21087       -0.90778       -2.44780
C         -3.29209        4.71777       -1.30167
C         -4.09226        2.40887       -0.55126
H         -0.58671        5.35085       -2.01037
H          0.12992        3.91628       -1.26150
H         -1.00277        3.74112       -2.59888
H         -3.26351        4.61259       -2.39491
H         -3.43875        5.79200       -1.11289
H         -4.21038        1.86766       -1.49927
C         -4.47925        3.88710       -0.73661
C         -4.82838        1.69079        0.55975
H         -1.70843        4.78827        0.20253
H         -4.78726        4.29806        0.23459
H         -5.36337        3.97240       -1.38667
H         -5.89957        1.63045        0.35427
H         -4.45075        0.67446        0.69109
H         -4.70593        2.21041        1.51084
C         -1.01345       -4.21955        0.82841
C          0.32743       -3.77344        0.70597
C          0.55752       -2.41244        0.60224
C         -0.47224       -1.51297        0.68281
C         -1.75841       -1.93136        0.90128
C         -2.05789       -3.27885        1.02218
O         -1.31348       -5.60315        0.71593
C          1.52167       -4.73749        0.63369
H          1.55065       -2.03520        0.43486
H         -2.53192       -1.18487        0.96340
C         -3.50643       -3.69557        1.32077
C          4.29017        1.16936        0.09397
C          3.62734        0.41893       -0.90940
C          2.27037        0.19289       -0.76528
C          1.58844        0.60923        0.34736
C          2.24726        1.24823        1.36559
C          3.60500        1.51073        1.28797
O          5.62608        1.60671       -0.10995
C          4.34474       -0.12787       -2.15353
H          1.71333       -0.31091       -1.53437
H          1.68136        1.54905        2.22845
C          4.30937        2.17394        2.48242
C          2.79610       -4.07220        1.20280
C          1.26492       -6.00363        1.47066
C          1.77989       -5.11351       -0.83333
C         -4.21432       -2.62343        2.18050
C         -4.27251       -3.84805       -0.00207
C         -3.55517       -5.01113        2.11892
C         -1.59018       -6.02712       -0.61308
H          3.61063       -4.79288        1.27167
H          3.14450       -3.25745        0.56988
H          2.61386       -3.67695        2.20179
H          0.42515       -6.57357        1.08112
H          2.13626       -6.65803        1.46880
H          1.03971       -5.74130        2.50383
H          2.63857       -5.77860       -0.92118
H          0.91966       -5.61594       -1.26879
H          1.97874       -4.22333       -1.42950
H         -4.37159       -1.70027        1.62532
H         -5.19485       -2.97214        2.50389
H         -3.63023       -2.39304        3.07113
H         -4.26906       -2.91134       -0.55906
H         -3.82067       -4.60896       -0.63389
H         -5.30944       -4.13094        0.17718
H         -2.97723       -4.92346        3.03830
H         -4.57957       -5.27012        2.38541
H         -3.14576       -5.83919        1.54600
H         -2.59857       -6.43723       -0.66467
H         -1.50244       -5.18843       -1.30505
H         -0.88926       -6.81076       -0.90021
C          5.73050        2.87272       -0.74930
C          5.81164       -0.47507       -1.84191
C          3.67011       -1.43014       -2.64330
C          4.27243        0.91464       -3.27940
C          3.60704        1.80017        3.80792
C          5.76849        1.69655        2.59910
C          4.26296        3.70043        2.31792
H          6.30115       -0.92081       -2.70746
H          6.37872        0.40939       -1.56304
H          5.87074       -1.18364       -1.01639
H          4.24838       -1.88726       -3.44584
H          3.59259       -2.15414       -1.83296
H          2.67114       -1.24601       -3.03545
H          4.76528        0.55114       -4.18068
H          3.23574        1.13980       -3.52895
H          4.75156        1.84573       -2.98620
H          4.17880        2.15959        4.66322
H          2.61508        2.24409        3.87834
H          3.50777        0.71909        3.90265
H          6.24855        2.11533        3.48321
H          5.81208        0.61034        2.67170
H          6.35457        1.99659        1.73399
H          4.74375        4.19848        3.15951
H          3.23247        4.05056        2.26194
H          4.76905        4.01463        1.40835
H          6.28987        3.55803       -0.11263
H          6.27055        2.76498       -1.68975
H          4.73918        3.28376       -0.94429
