105
-153.05981601
Cl         0.56049        3.65861        1.52498
Pd        -0.10806        1.94163        0.22176
P         -0.74727        0.25126       -1.31041
N          0.14736       -1.13541       -1.95657
C          0.23706       -2.46708       -1.56264
C         -0.10472       -2.95748       -0.27224
C          0.20558       -4.29489        0.06051
C          0.05833       -4.76014        1.49133
C         -0.09215       -6.28198        1.62450
C          1.03024       -6.99564        0.86525
C          1.01434       -6.61835       -0.62566
C          0.72656       -5.16127       -0.90389
C          0.98446       -4.67630       -2.17869
C          0.76621       -3.36065       -2.49347
H          1.01174       -2.99714       -3.47637
H          1.38384       -5.34717       -2.92060
H          1.97306       -6.88148       -1.09059
H          1.99700       -6.71519        1.30215
H         -0.10959       -6.58636        2.68061
H          0.94231       -4.42866        2.04935
C         -0.69922       -2.09320        0.78287
C          0.12014       -1.11124        1.39907
C         -0.35037       -0.43697        2.52635
C         -1.60446       -0.69586        3.01536
C         -2.44302       -1.62449        2.40533
C         -3.80459       -1.85738        3.01841
C         -4.73313       -2.78939        2.21840
C         -3.94956       -3.91782        1.54028
C         -2.88367       -3.33519        0.60268
C         -1.99203       -2.32780        1.28458
H         -2.28095       -4.13723        0.16116
H         -4.62382       -4.59562        0.99780
H         -5.26096       -2.20958        1.45186
H         -4.28830       -0.88379        3.16858
H         -1.96062       -0.16494        3.88187
H          0.27177        0.30804        2.98743
N          1.28728       -0.73978        0.73737
P          1.83186        0.87687        0.99578
C          2.93390        1.37863       -0.32078
C          3.14186        2.71885       -0.54379
C          3.90563        3.12419       -1.62270
C          4.46076        2.18763       -2.48492
C          4.22494        0.83918       -2.25044
C          3.46179        0.43551       -1.16979
H          3.26319       -0.60944       -0.99437
H          4.63477        0.10746       -2.92554
C          5.24891        2.62212       -3.67112
H          4.06098        4.17275       -1.81066
H          2.66497        3.43799        0.10347
C          2.62021        0.95310        2.60287
C          2.50354        2.05835        3.41025
C          3.11870        2.07641        4.64721
C          3.86085        0.98626        5.08183
C          3.95818       -0.12691        4.25724
C          3.34036       -0.14118        3.01891
H          3.40338       -1.00524        2.37586
H          4.51727       -0.98393        4.59189
C          4.50221        0.99307        6.42583
H          3.02355        2.93827        5.28540
H          1.92207        2.89782        3.06946
H          1.14578       -0.83259       -0.26773
H          0.36115       -0.92813       -2.92428
C         -0.62386        1.45150       -2.64488
C          0.63637        1.86071       -3.01038
C          0.79113        2.79566       -4.01734
C         -0.31702        3.32040       -4.66821
C         -1.58187        2.90057       -4.27750
C         -1.73426        1.96621       -3.26987
H         -2.71522        1.64636       -2.95928
H         -2.44808        3.31615       -4.76337
C         -0.15414        4.35107       -5.73044
H          1.77583        3.12955       -4.29617
H          1.49479        1.46392       -2.49284
C         -2.47131       -0.21809       -1.18820
C         -2.97378       -1.04591       -2.16371
C         -4.31060       -1.40348       -2.14273
C         -5.15049       -0.93301       -1.14295
C         -4.62358       -0.09746       -0.16684
C         -3.28811        0.25821       -0.19099
H         -2.88069        0.91015        0.56399
H         -5.26539        0.27661        0.61230
C         -6.58398       -1.33534       -1.11788
H         -4.70901       -2.05485       -2.90169
H         -2.31486       -1.41189       -2.93543
Cl        -2.03431        3.03609       -0.15990
H          0.26274       -7.22224       -1.14820
H         -1.06206       -6.58775        1.21238
H          0.95488       -8.08467        0.99400
H         -0.78628       -4.25549        1.97226
H         -3.46245       -4.53427        2.30612
H         -3.37198       -2.84624       -0.24625
H         -3.65823       -2.26639        4.02536
H         -5.52166       -3.20044        2.86437
H          5.72650        3.58703       -3.49545
H          6.03418        1.90238       -3.90638
H          4.60714        2.71903       -4.54792
H          5.40236        0.37688        6.43585
H          4.79015        2.00347        6.71948
H          3.81952        0.60422        7.18257
H          0.79007        4.22335       -6.26173
H         -0.95814        4.28985       -6.46520
H         -0.16588        5.35377       -5.30109
H         -7.12372       -0.83741       -0.31130
H         -7.07633       -1.07754       -2.05653
H         -6.68208       -2.41183       -0.97038
