111
-148.55570852
P         -2.55829        2.08622        1.10049
P          0.06815        0.41103        0.53026
C         -1.47143        1.62325        2.47458
C         -0.31003        0.92838        2.21556
C         -3.27138        3.77909        1.32519
C         -2.64938        4.76680        0.36225
C         -1.80495        1.94682        3.77414
H         -2.72372        2.47397        3.97290
C         -0.96602        1.57847        4.81194
H         -1.22540        1.83028        5.82729
C          0.20085        0.88656        4.54876
H          0.85237        0.59778        5.35702
C          0.52825        0.55695        3.24570
H          1.42719        0.00361        3.02300
Pd        -1.37545        1.62432       -0.82165
Cl        -3.04536        2.46938       -2.05042
Cl         0.01759        1.11169       -2.51458
C         -4.78101        3.54860        1.12244
C         -4.10941        1.08186        1.02535
H         -1.56802        4.83314        0.50466
H         -2.82511        4.46310       -0.67089
H         -3.07084        5.76689        0.48807
H         -5.03159        3.76097        0.07398
H         -5.36280        4.26936        1.71686
H         -4.24612        0.81253       -0.03064
C         -5.19014        2.08709        1.46383
C         -4.00685       -0.15779        1.88680
H         -3.06400        4.06880        2.36323
H         -5.34275        1.99224        2.54780
H         -6.15815        1.83252        1.00594
H         -4.93194       -0.73846        1.86411
H         -3.19328       -0.80386        1.55010
H         -3.80620        0.10746        2.92647
C         -1.08082       -3.93728       -0.16739
C         -1.15066       -3.40531        1.14636
C         -0.79681       -2.08005        1.33731
C         -0.46479       -1.27967        0.27602
C         -0.50673       -1.75981       -1.00541
C         -0.84776       -3.07436       -1.26848
O         -1.19820       -5.33734       -0.37493
C         -1.55493       -4.25402        2.36187
H         -0.75601       -1.65858        2.32593
H         -0.25347       -1.08260       -1.80229
C         -0.91448       -3.54533       -2.72899
C          4.44807        0.68916       -0.66587
C          3.93052       -0.52188       -0.13910
C          2.59266       -0.56116        0.21526
C          1.80512        0.55749        0.13380
C          2.32782        1.75864       -0.26573
C          3.65680        1.86672       -0.64212
O          5.73974        0.71263       -1.25593
C          4.77335       -1.79840        0.00648
H          2.13678       -1.48117        0.53891
H          1.67018        2.60969       -0.30935
C          4.19912        3.23725       -1.07586
C         -0.29854       -4.89061        2.97510
C         -2.24005       -3.37996        3.43692
C         -2.56463       -5.34658        1.96545
C          0.47983       -4.01333       -3.17333
C         -1.93822       -4.68164       -2.90199
C         -1.36510       -2.38907       -3.65154
C          0.04149       -6.03294       -0.32661
H          0.20643       -5.53462        2.25903
H          0.40926       -4.12279        3.28689
H         -0.55165       -5.49148        3.84822
H         -3.07999       -2.83137        3.01249
H         -2.62249       -3.99699        4.24970
H         -1.54898       -2.66350        3.87825
H         -2.90176       -5.90435        2.83878
H         -3.43822       -4.90576        1.48633
H         -2.12686       -6.05836        1.27008
H          1.20373       -3.20344       -3.08492
H          0.83231       -4.83975       -2.56059
H          0.46845       -4.34417       -4.21148
H         -1.64817       -5.56646       -2.34112
H         -2.92047       -4.36968       -2.54866
H         -2.02995       -4.97048       -3.94871
H         -0.61143       -1.60589       -3.71648
H         -1.54000       -2.74832       -4.66530
H         -2.29105       -1.94287       -3.28982
H          0.85906       -5.34048       -0.12165
H          0.00426       -6.79232        0.45431
H          0.21903       -6.53231       -1.27891
C          5.74592        0.40116       -2.64373
C          4.64969       -2.63620       -1.27556
C          6.24972       -1.46276        0.28434
C          4.27336       -2.64713        1.19836
C          3.46545        4.37570       -0.33110
C          5.69556        3.37543       -0.74232
C          3.97238        3.41464       -2.58511
H          5.00554       -2.08534       -2.14291
H          5.22966       -3.55555       -1.19891
H          3.61016       -2.90717       -1.45939
H          6.33993       -0.83440        1.16978
H          6.83312       -2.36815        0.44984
H          6.69998       -0.92968       -0.54906
H          4.94528       -3.48446        1.38553
H          4.22440       -2.04776        2.10711
H          3.28608       -3.06675        1.01048
H          2.42379        4.45353       -0.63886
H          3.49496        4.21609        0.74643
H          3.93236        5.33801       -0.53986
H          6.06263        4.37030       -0.99327
H          5.86883        3.20773        0.32013
H          6.29396        2.65575       -1.29517
H          2.91212        3.34018       -2.82596
H          4.49412        2.64959       -3.15482
H          4.32867        4.38755       -2.92249
H          6.17942        1.23038       -3.20260
H          6.35791       -0.48349       -2.81866
H          4.73026        0.21638       -2.99606
