75
-122.80540414
P          1.91420       -0.51609       -0.16702
C          3.34292       -1.16731       -1.05703
C          3.55279       -0.89803       -2.38905
C          4.66317       -1.40626       -3.03464
C          5.56754       -2.18160       -2.33746
C          5.36314       -2.44472       -0.99777
C          4.24848       -1.93365       -0.35759
H          4.07882       -2.13070        0.68890
H          6.06975       -3.04708       -0.45084
H          6.43524       -2.57898       -2.83838
H          4.82449       -1.19274       -4.07857
H          2.85490       -0.27124       -2.91541
C          1.59278       -1.65527        1.18109
C          1.90517       -1.30544        2.47453
C          1.75981       -2.23310        3.48967
C          1.30786       -3.50522        3.19885
C          0.99779       -3.85137        1.89844
C          1.14469       -2.92200        0.88430
H          0.92570       -3.18120       -0.13985
H          0.64234       -4.84322        1.67270
H          1.19013       -4.22771        3.98985
H          1.99745       -1.96217        4.50516
H          2.26437       -0.31048        2.68235
C          2.28137        1.13635        0.44001
C          3.46329        1.77894        0.15509
C          3.65246        3.10368        0.52479
C          2.60399        3.77987        1.14764
C          1.40968        3.15127        1.42318
C          1.24993        1.79625        1.09297
O          0.05329        1.11631        1.37420
C         -1.13688        1.80216        1.07584
C         -1.27514        3.17102        1.35387
C         -2.43543        3.81899        0.99320
C         -3.46795        3.14548        0.34152
C         -3.32275        1.78982        0.08227
C         -2.17889        1.12403        0.45715
P         -1.82314       -0.61114        0.10413
C         -1.78431       -1.52038        1.66459
C         -1.38761       -0.91155        2.83319
C         -1.44413       -1.60102        4.02953
C         -1.89417       -2.90572        4.04955
C         -2.28434       -3.51975        2.87629
C         -2.23105       -2.82275        1.68272
H         -2.54692       -3.28767        0.76276
H         -2.63304       -4.53926        2.88962
H         -1.93456       -3.44727        4.98051
H         -1.12887       -1.12272        4.94226
H         -1.01595        0.09772        2.80259
C         -3.09598       -1.41132       -0.88587
C         -4.41769       -1.29274       -0.52071
C         -5.39399       -1.94807       -1.24892
C         -5.03759       -2.73042       -2.32926
C         -3.70831       -2.86724       -2.67612
C         -2.73453       -2.21125       -1.94534
H         -1.69173       -2.31644       -2.19974
H         -3.42853       -3.48343       -3.51473
H         -5.79754       -3.24022       -2.89870
H         -6.43022       -1.85230       -0.96905
H         -4.67932       -0.71172        0.34925
Pd        -0.05760        0.08413       -1.34505
Cl        -1.73125        0.45023       -2.81250
Cl         1.35823        1.20094       -2.69388
H         -4.09887        1.26406       -0.44368
C         -4.71468        3.85815       -0.04564
H         -5.47598        3.75539        0.72864
H         -5.12209        3.45759       -0.97485
H         -4.52951        4.92226       -0.19752
H         -2.53756        4.86743        1.21097
S          0.05461        4.02125        2.16604
H          2.71933        4.81789        1.40537
C          4.91914        3.80815        0.19301
H          4.23532        1.25496       -0.38159
H          5.76566        3.12033        0.20455
H          4.86280        4.25641       -0.79971
H          5.12748        4.60264        0.91073
