105
-153.07022419
Cl        -0.00365        1.84725        3.07881
Pd        -0.62642        1.12950        1.03720
P         -1.22463        0.49915       -1.13502
N         -0.92252       -1.04955       -1.90771
C          0.09018       -1.97165       -1.63049
C          0.32258       -2.48074       -0.32567
C          1.33572       -3.44137       -0.12955
C          1.54375       -4.00854        1.25491
C          2.41668       -5.27215        1.30447
C          3.64281       -5.12789        0.39869
C          3.21513       -4.89141       -1.05740
C          2.10571       -3.88100       -1.20972
C          1.83620       -3.39275       -2.48182
C          0.84643       -2.46900       -2.69176
H          0.65441       -2.09812       -3.68344
H          2.42318       -3.74880       -3.31153
H          4.07443       -4.56575       -1.65766
H          4.25038       -4.28165        0.74302
H          2.72003       -5.49738        2.33667
H          1.99230       -3.22955        1.88199
C         -0.61952       -2.18917        0.78131
C         -0.14295       -1.60812        1.99011
C         -1.01646       -1.52611        3.07957
C         -2.31397       -1.95630        2.97776
C         -2.80287       -2.51045        1.80101
C         -4.23741       -2.98408        1.78444
C         -4.74927       -3.43727        0.40657
C         -3.66548       -4.19948       -0.36050
C         -2.42592       -3.31634       -0.56121
C         -1.95100       -2.64142        0.70184
H         -1.60500       -3.91076       -0.98139
H         -4.04935       -4.56282       -1.32433
H         -5.05439       -2.56163       -0.17934
H         -4.87447       -2.18257        2.17959
H         -2.97510       -1.86693        3.82317
H         -0.66549       -1.07755        3.99234
N          1.13130       -1.03166        2.09192
P          1.53798        0.17108        0.86795
C          2.66020       -0.41208       -0.39398
C          2.53022        0.07080       -1.67132
C          3.43450       -0.31275       -2.64445
C          4.48544       -1.16540       -2.33268
C          4.60982       -1.62545       -1.02804
C          3.70161       -1.24199       -0.05744
H          3.79739       -1.58444        0.96058
H          5.42012       -2.28848       -0.77764
C          5.43405       -1.61461       -3.38843
H          3.32537        0.04534       -3.65381
H          1.71862        0.73984       -1.89809
C          2.37510        1.60279        1.56138
C          3.17395        1.47822        2.67215
C          3.82103        2.59111        3.17795
C          3.68094        3.82987        2.56616
C          2.87252        3.93241        1.44206
C          2.22693        2.81898        0.93671
H          1.60063        2.89466        0.06132
H          2.74787        4.89037        0.96682
C          4.35069        5.03433        3.13014
H          4.43830        2.50408        4.05575
H          3.29220        0.51361        3.13825
H          1.32209       -0.57671        2.97525
H         -1.20073       -0.92709       -2.87288
C         -0.51501        1.84894       -2.08256
C         -0.56980        3.12249       -1.56711
C          0.00775        4.17198       -2.25589
C          0.63088        3.95482       -3.47716
C          0.66479        2.66476       -3.98951
C          0.08631        1.61700       -3.29705
H          0.12194        0.61499       -3.69106
H          1.15338        2.48479       -4.93190
C          1.28402        5.07797       -4.20475
H         -0.02240        5.16785       -1.84783
H         -1.07846        3.28904       -0.63079
C         -3.00941        0.68902       -1.16537
C         -3.60114        1.44320       -2.15065
C         -4.97636        1.58971       -2.17215
C         -5.76719        0.97774       -1.20906
C         -5.14966        0.22640       -0.21898
C         -3.77521        0.07634       -0.20499
H         -3.29033       -0.50350        0.56209
H         -5.75166       -0.23214        0.54668
C         -7.24476        1.16155       -1.20940
H         -5.44388        2.18739       -2.93590
H         -2.98530        1.92006       -2.89624
Cl        -2.48207        2.39881        1.14150
H          2.88779       -5.83773       -1.50432
H          1.82467       -6.13607        0.97718
H          4.29373       -6.01008        0.47855
H          0.56285       -4.21465        1.70159
H         -3.38421       -5.09765        0.20349
H         -2.64271       -2.54335       -1.30744
H         -4.33373       -3.80993        2.49947
H         -5.65611       -4.04986        0.50920
H          5.05829       -2.50679       -3.89135
H          5.57989       -0.83936       -4.14195
H          6.41086       -1.85311       -2.96534
H          3.70730        5.52807        3.85963
H          5.28384        4.76905        3.62903
H          4.58775        5.75606        2.34721
H          0.76958        6.02125       -4.01595
H          2.32207        5.19159       -3.88924
H          1.27631        4.90709       -5.28216
H         -7.74989        0.28883       -0.79304
H         -7.52623        2.03010       -0.61253
H         -7.62316        1.31128       -2.22155
