111
-148.55478281
P         -2.37347        2.21682        0.58339
P          0.10294        0.24393        0.40718
C         -1.43280        1.81683        2.07833
C         -0.35718        0.96174        1.99478
C         -2.83220        4.00930        0.58603
C         -2.42897        4.66839       -0.71467
C         -1.78822        2.35899        3.29696
H         -2.63076        3.02842        3.35654
C         -1.06336        2.03788        4.43173
H         -1.34002        2.46096        5.38361
C          0.01143        1.17389        4.34604
H          0.57454        0.92149        5.22943
C          0.36366        0.63125        3.12323
H          1.19726       -0.04849        3.03894
Pd        -1.22018        1.30060       -1.19523
Cl        -2.85641        1.99166       -2.55980
Cl        -0.00953        0.17874       -2.71678
C         -4.35588        3.97758        0.82666
C         -4.05576        1.44440        0.54943
H         -1.35434        4.57762       -0.89054
H         -2.94057        4.19930       -1.55672
H         -2.68548        5.73047       -0.72319
H         -4.82335        4.84113        0.33131
H         -4.56885        4.10092        1.89868
H         -4.07405        0.76952       -0.31670
C         -4.99132        2.65022        0.32564
C         -4.32960        0.67512        1.82386
H         -2.30431        4.47346        1.43010
H         -5.95304        2.46705        0.82658
H         -5.22783        2.74353       -0.74458
H         -4.31042        1.34180        2.68764
H         -5.31099        0.19540        1.79987
H         -3.57685       -0.09941        1.98987
C         -1.27808       -4.09437        0.53889
C         -2.10789       -3.09986       -0.03838
C         -1.65453       -1.79178       -0.04327
C         -0.39595       -1.47596        0.39851
C          0.45318       -2.45093        0.85388
C          0.05498       -3.77741        0.90525
O         -1.79803       -5.39159        0.79185
C         -3.48585       -3.41322       -0.64265
H         -2.29279       -0.99792       -0.38811
H          1.43195       -2.15597        1.19027
C          1.04854       -4.83998        1.40070
C          4.48093        0.99865       -0.61742
C          3.79677       -0.08680       -1.22113
C          2.46878       -0.29324       -0.88519
C          1.84295        0.48842        0.05013
C          2.53063        1.47516        0.70862
C          3.86517        1.72450        0.43398
O          5.76034        1.38978       -1.09420
C          4.44785       -0.99567       -2.27511
H          1.88804       -1.05191       -1.38046
H          2.00266        2.06265        1.43946
C          4.61108        2.78924        1.25374
C         -4.56681       -3.25470        0.43670
C         -3.79999       -2.44283       -1.80503
C         -3.52417       -4.83715       -1.22669
C          0.95513       -4.94404        2.93043
C          0.76925       -6.21138        0.75852
C          2.49372       -4.45495        1.01525
C         -2.43235       -5.52063        2.05819
H         -5.55700       -3.45892        0.03021
H         -4.39758       -3.93578        1.26739
H         -4.56841       -2.24042        0.83417
H         -3.95883       -1.42567       -1.45152
H         -2.98587       -2.42912       -2.52919
H         -4.70776       -2.74431       -2.32696
H         -4.47864       -5.03582       -1.71346
H         -2.73301       -4.97037       -1.96378
H         -3.38765       -5.58767       -0.45213
H          1.18802       -3.98697        3.39670
H         -0.04633       -5.22964        3.24444
H          1.65391       -5.68636        3.31524
H         -0.20118       -6.59976        1.05681
H          0.77881       -6.13510       -0.32823
H          1.52081       -6.94300        1.05419
H          2.82977       -3.56074        1.53770
H          3.18863       -5.25480        1.27019
H          2.56769       -4.27737       -0.05669
H         -1.91601       -6.27496        2.65160
H         -2.41707       -4.56846        2.59005
H         -3.46412       -5.84316        1.91911
C          5.71565        2.36303       -2.13047
C          5.96474       -1.12636       -2.04612
C          3.86233       -2.42298       -2.19818
C          4.16889       -0.42257       -3.67295
C          4.44111        4.16116        0.58410
C          4.04246        2.86611        2.68933
C          6.10594        2.44382        1.38238
H          6.17093       -1.48483       -1.03817
H          6.40868       -1.82699       -2.75290
H          6.46986       -0.17203       -2.16980
H          2.81258       -2.44821       -2.48593
H          4.39426       -3.09626       -2.86998
H          3.95351       -2.81864       -1.18766
H          3.09631       -0.36017       -3.85561
H          4.57982        0.57907       -3.77660
H          4.60818       -1.04992       -4.44801
H          4.85499        4.16319       -0.42140
H          3.38656        4.42557        0.50937
H          4.94485        4.93979        1.15633
H          4.64941        3.52384        3.31110
H          3.02799        3.26173        2.70175
H          4.03206        1.88101        3.15515
H          6.62119        3.16303        2.01857
H          6.59933        2.44960        0.41364
H          6.23479        1.45303        1.81680
H          6.15894        1.95426       -3.03826
H          4.68461        2.65668       -2.33163
H          6.29259        3.23890       -1.83388
