111
-148.55381442
P         -2.17302        2.09778        1.42066
P          0.17315        0.15521        0.53909
C         -1.01625        1.46841        2.65947
C         -0.01075        0.60780        2.27612
C         -2.28915        3.94210        1.45872
C         -1.45433        4.56682        0.36114
C         -1.13860        1.84563        3.98117
H         -1.91701        2.53395        4.26815
C         -0.25900        1.34296        4.92420
H         -0.35455        1.63395        5.95755
C          0.74027        0.46895        4.54155
H          1.42483        0.07631        5.27533
C          0.86619        0.10269        3.21330
H          1.64636       -0.57248        2.90094
Pd        -1.46624        1.31628       -0.62719
Cl        -3.34421        2.13396       -1.53895
Cl        -0.62484        0.51128       -2.54400
C         -3.80307        4.18733        1.32794
C         -3.94384        1.65671        1.74795
H         -0.40139        4.29008        0.45627
H         -1.79393        4.23291       -0.62117
H         -1.52206        5.65707        0.37953
H         -4.05333        4.28013        0.26194
H         -4.07604        5.15263        1.78111
H         -4.30166        1.18182        0.82480
C         -4.62495        3.02510        1.95251
C         -4.08842        0.71996        2.93059
H         -1.93233        4.25558        2.44848
H         -4.74352        3.20307        3.02998
H         -5.64705        3.00687        1.54532
H         -3.77764        1.20983        3.85436
H         -5.12477        0.40071        3.06327
H         -3.46896       -0.17130        2.81673
C         -1.30877       -4.07089       -0.28552
C         -2.16600       -3.11737        0.32247
C         -1.65321       -1.85986        0.59928
C         -0.38598       -1.51283        0.20599
C          0.38700       -2.38170       -0.51997
C         -0.05729       -3.65984       -0.81145
O         -1.67069       -5.44341       -0.32177
C         -3.63129       -3.41591        0.67598
H         -2.24464       -1.12464        1.11681
H          1.34684       -2.04438       -0.86721
C          0.81621       -4.58631       -1.67103
C          4.38171        1.06357       -0.96783
C          4.15287       -0.09733       -0.18625
C          2.86953       -0.33430        0.27832
C          1.82810        0.48989       -0.06319
C          2.02902        1.56054       -0.89461
C          3.28481        1.85079       -1.40068
O          5.70900        1.45337       -1.29045
C          5.27828       -1.07830        0.18038
H          2.66618       -1.17441        0.91902
H          1.18183        2.17169       -1.15263
C          3.43531        3.01127       -2.39714
C         -3.73090       -3.75307        2.17113
C         -4.51033       -2.18234        0.37128
C         -4.19651       -4.57637       -0.16344
C          1.66432       -3.76412       -2.66772
C          1.75837       -5.38896       -0.76172
C         -0.05377       -5.54491       -2.50466
C         -1.27373       -6.16343        0.83799
H         -3.37529       -2.92207        2.77971
H         -4.76113       -3.96390        2.45670
H         -3.12685       -4.62480        2.41593
H         -4.37663       -1.85865       -0.66061
H         -5.56555       -2.41120        0.51808
H         -4.27068       -1.34444        1.02092
H         -5.25736       -4.72481        0.03668
H         -4.07660       -4.37369       -1.22715
H         -3.68742       -5.51109        0.05637
H          1.03365       -3.09265       -3.24984
H          2.42040       -3.16791       -2.16002
H          2.18770       -4.41945       -3.36349
H          2.37763       -4.72236       -0.16225
H          1.19793       -6.02506       -0.08025
H          2.41832       -6.02669       -1.34929
H         -0.62363       -6.21681       -1.86708
H         -0.76002       -4.98648       -3.11813
H          0.55964       -6.15756       -3.16482
H         -0.59314       -5.56264        1.44255
H         -2.14921       -6.42051        1.43347
H         -0.77569       -7.08568        0.53814
C          6.30144        2.33571       -0.34560
C          4.71973       -2.50457        0.38611
C          6.32315       -1.16714       -0.94694
C          5.94505       -0.62190        1.48675
C          2.14322        3.18432       -3.22922
C          3.70027        4.31355       -1.62694
C          4.57630        2.74097       -3.39461
H          5.52932       -3.21987        0.52946
H          4.08046       -2.56600        1.26552
H          4.14418       -2.82286       -0.48198
H          7.08606       -1.91038       -0.71665
H          5.84957       -1.44713       -1.88736
H          6.82661       -0.21541       -1.09749
H          6.74106       -1.30642        1.77876
H          6.37706        0.37041        1.38324
H          5.21776       -0.58386        2.29745
H          2.29179        3.90888       -4.02943
H          1.84529        2.23969       -3.68349
H          1.31598        3.54670       -2.62081
H          2.88020        4.52982       -0.94253
H          4.61224        4.24553       -1.03875
H          3.80173        5.15698       -2.30942
H          4.41511        1.79704       -3.91423
H          5.53843        2.68432       -2.89181
H          4.64056        3.53256       -4.14074
H          5.61251        2.53117        0.47709
H          7.21711        1.89128        0.04414
H          6.56093        3.27489       -0.83372
