111
-148.55060533
P         -2.52829        2.12782        0.88238
P          0.11450        0.40048        0.51945
C         -1.45939        1.78161        2.31104
C         -0.29322        1.06811        2.13932
C         -3.38341        3.75678        1.10891
C         -3.20236        4.65910       -0.09128
C         -1.81303        2.22017        3.57166
H         -2.73472        2.76106        3.70934
C         -0.99137        1.95064        4.65268
H         -1.26818        2.29364        5.63624
C          0.18058        1.24122        4.47383
H          0.81923        1.02977        5.31561
C          0.52879        0.79425        3.21198
H          1.43203        0.22522        3.05500
Pd        -1.26666        1.50518       -0.96262
Cl        -2.85469        2.44143       -2.23667
Cl         0.05297        0.85147       -2.66019
C         -4.84789        3.34453        1.36620
C         -3.99020        0.99660        0.78826
H         -3.66206        4.21708       -0.97605
H         -3.66748        5.63513        0.06589
H         -2.14470        4.81857       -0.31336
H         -5.52128        4.12647        0.98577
H         -5.03807        3.29192        2.44828
H         -3.89103        0.42632       -0.14575
C         -5.18332        1.97161        0.71860
C         -4.02231        0.06079        1.97680
H         -2.94018        4.22388        1.99856
H         -6.05849        1.51670        1.20502
H         -5.47500        2.12790       -0.33044
H         -3.11314       -0.54233        2.02758
H         -4.09556        0.62409        2.90897
H         -4.87692       -0.61850        1.93100
C         -1.18957       -3.94608        0.12763
C         -1.15352       -3.34608        1.41308
C         -0.74671       -2.02568        1.51044
C         -0.46208       -1.29149        0.38925
C         -0.60848       -1.83467       -0.85931
C         -1.00515       -3.14842       -1.03007
O         -1.36739       -5.34968        0.00346
C         -1.50770       -4.11861        2.69344
H         -0.63174       -1.55437        2.47029
H         -0.38955       -1.20958       -1.70736
C         -1.18741       -3.68764       -2.45684
C          4.49617        0.71804       -0.67557
C          3.82747       -0.52994       -0.75248
C          2.49562       -0.58083       -0.38036
C          1.85204        0.52325        0.11375
C          2.51969        1.70754        0.28282
C          3.85641        1.82708       -0.06351
O          5.78901        0.86557       -1.24479
C          4.50172       -1.80918       -1.27237
H          1.93276       -1.49077       -0.49038
H          1.97423        2.54585        0.68096
C          4.57828        3.15913        0.19429
C         -2.07126       -3.16530        3.77166
C         -2.59342       -5.17520        2.41932
C         -0.24251       -4.79083        3.24742
C         -1.66941       -2.56393       -3.40363
C          0.15868       -4.21974       -2.97224
C         -2.25241       -4.79801       -2.50145
C         -0.15117       -6.08700       -0.00330
H         -2.42425       -3.72651        4.63656
H         -1.31588       -2.46791        4.13057
H         -2.91155       -2.59224        3.38157
H         -2.89151       -5.67862        3.33866
H         -3.47819       -4.71188        1.98391
H         -2.24072       -5.93610        1.72746
H          0.17657       -5.49306        2.53086
H          0.52276       -4.04749        3.46978
H         -0.46027       -5.33662        4.16512
H         -1.92684       -2.96666       -4.38285
H         -2.55380       -2.07067       -3.00124
H         -0.90002       -1.80980       -3.56156
H          0.06329       -4.60682       -3.98634
H          0.90683       -3.42745       -2.98275
H          0.53472       -5.02068       -2.33997
H         -2.42453       -5.13513       -3.52331
H         -1.94976       -5.66286       -1.91671
H         -3.19861       -4.43783       -2.09904
H         -0.16390       -6.81867        0.80443
H         -0.05212       -6.62345       -0.94675
H          0.70071       -5.41789        0.12508
C          5.77746        1.26799       -2.60880
C          4.30781       -1.90105       -2.79362
C          6.00076       -1.82709       -0.92367
C          3.87182       -3.06272       -0.62117
C          6.07440        2.93555        0.48082
C          4.40349        4.07556       -1.02624
C          3.98597        3.86877        1.43323
H          4.76152       -1.05329       -3.30106
H          4.75687       -2.81109       -3.19061
H          3.24778       -1.90877       -3.04641
H          6.46563       -2.76051       -1.24008
H          6.53163       -1.01348       -1.41150
H          6.14570       -1.72307        0.15111
H          2.84653       -3.21946       -0.95324
H          4.43249       -3.95900       -0.88561
H          3.87139       -2.97683        0.46513
H          6.57050        3.87369        0.72839
H          6.20653        2.25066        1.31772
H          6.58496        2.51176       -0.38021
H          3.34746        4.26408       -1.21809
H          4.89488        5.03519       -0.86795
H          4.82587        3.62528       -1.92124
H          4.57658        4.74630        1.69550
H          3.97733        3.20148        2.29472
H          2.96798        4.21134        1.25415
H          4.75189        1.38183       -2.96251
H          6.30648        2.21479       -2.71590
H          6.29072        0.52152       -3.21473
