105
-153.06489998
Cl         0.05774        1.80511        3.11169
Pd        -0.52019        1.31010        0.98700
P         -1.07198        0.50062       -1.14579
N         -0.65674       -0.99504       -1.97689
C          0.23860       -2.00383       -1.62609
C          0.35932       -2.49097       -0.29983
C          1.29561       -3.51063       -0.02323
C          1.38796       -4.06007        1.38136
C          2.61756       -4.94345        1.64826
C          2.86398       -5.91209        0.48891
C          3.08600       -5.13941       -0.81895
C          2.07144       -4.04896       -1.05438
C          1.90456       -3.58002       -2.35105
C          1.00497       -2.58675       -2.63416
H          0.89717       -2.22449       -3.64169
H          2.50342       -4.00268       -3.14000
H          4.08641       -4.69070       -0.81802
H          3.71578       -6.57262        0.70494
H          3.50090       -4.30589        1.78016
H          1.38435       -3.22282        2.08783
C         -0.64613       -2.12432        0.72778
C         -0.23640       -1.51953        1.94766
C         -1.17597       -1.38889        2.97494
C         -2.47026       -1.80661        2.80604
C         -2.89466       -2.38018        1.61366
C         -4.32802       -2.84527        1.52017
C         -4.78051       -3.21429        0.09837
C         -3.69649       -4.01689       -0.62545
C         -2.39414       -3.20861       -0.72110
C         -1.98172       -2.54189        0.56931
H         -1.57730       -3.85525       -1.06521
H         -4.04017       -4.32576       -1.62285
H         -4.99058       -2.29958       -0.46936
H         -4.97992       -2.06712        1.93661
H         -3.17945       -1.69015        3.60805
H         -0.87417       -0.92315        3.89661
N          1.05368       -0.99843        2.13055
P          1.58606        0.22658        0.98094
C          2.60778       -0.33724       -0.36904
C          2.43430        0.23542       -1.60402
C          3.26048       -0.13098       -2.65045
C          4.27619       -1.05774       -2.45483
C          4.44332       -1.61199       -1.19213
C          3.61357       -1.24595       -0.14747
H          3.74062       -1.66541        0.83788
H          5.22489       -2.33495       -1.03296
C          5.13942       -1.48584       -3.58965
H          3.11685        0.29808       -3.62724
H          1.64617        0.95558       -1.74296
C          2.51338        1.55435        1.75879
C          3.26924        1.30649        2.87917
C          3.98530        2.33553        3.46359
C          3.94596        3.61662        2.92921
C          3.19199        3.84049        1.78497
C          2.47723        2.81072        1.20073
H          1.88830        2.98172        0.31280
H          3.16664        4.82703        1.35466
C          4.73174        4.72051        3.54680
H          4.57992        2.14893        4.34149
H          3.30132        0.31032        3.28993
H          1.20315       -0.56001        3.03001
H         -0.92202       -0.89774       -2.94895
C         -0.59484        1.89466       -2.18110
C         -0.86226        3.17597       -1.76172
C         -0.48214        4.25380       -2.53802
C          0.16274        4.05659       -3.75105
C          0.42485        2.75697       -4.16208
C          0.04091        1.68170       -3.38221
H          0.25377        0.67557       -3.70190
H          0.93567        2.59242       -5.09549
C          0.60168        5.21687       -4.57487
H         -0.68348        5.25741       -2.20426
H         -1.37314        3.32661       -0.82514
C         -2.86931        0.51760       -1.09301
C         -3.54027        0.76341       -2.26762
C         -4.92384        0.77828       -2.28202
C         -5.64439        0.54544       -1.11870
C         -4.94906        0.30847        0.05836
C         -3.56723        0.28017        0.06595
H         -3.02773        0.08528        0.97827
H         -5.49763        0.14943        0.97085
C         -7.13265        0.58828       -1.12196
H         -5.45225        0.97691       -3.19874
H         -2.97817        0.94770       -3.16994
Cl        -2.30224        2.67434        1.10078
H          3.07460       -5.82794       -1.67364
H          2.50681       -5.49083        2.59501
H          1.99651       -6.57496        0.37818
H          0.47244       -4.62544        1.59199
H         -3.50702       -4.94825       -0.07718
H         -2.50060       -2.43420       -1.48950
H         -4.45279       -3.71179        2.18056
H         -5.72855       -3.77015        0.12051
H          6.13231       -1.77474       -3.24215
H          4.70176       -2.34083       -4.10686
H          5.26382       -0.68087       -4.31532
H          4.83878        4.57340        4.62240
H          5.73111        4.77469        3.11292
H          4.24451        5.68424        3.39235
H          1.60896        5.52998       -4.29676
H          0.60803        4.96620       -5.63656
H         -0.06514        6.06974       -4.44060
H         -7.49138        1.58606       -0.86585
H         -7.53291        0.32771       -2.10274
H         -7.54718       -0.11486       -0.39807
