58
-89.86772071
P          1.72392        0.32578        0.76801
C          3.17028        1.29417        0.33735
C          4.32517        0.66391       -0.06604
C          5.43442        1.41565       -0.40936
C          5.37645        2.79408       -0.34745
C          4.21414        3.42177        0.05562
C          3.10632        2.66719        0.39911
H          2.18784        3.14298        0.70527
H          4.35197       -0.41265       -0.11624
C          1.95657       -1.41063        0.35986
C          2.16922       -2.36397        1.32943
C          2.30861       -3.69142        0.96670
C          2.24322       -4.05431       -0.36422
C          2.04800       -3.09281       -1.33543
C          1.90739       -1.76744       -0.96877
H          1.75913       -0.99911       -1.71133
H          2.23889       -2.07065        2.36390
C          1.33556        0.60304        2.54201
C          0.14177       -0.18258        3.06421
C         -1.21291        0.36492        2.63843
P         -1.68558        0.00997        0.89709
C         -1.61388       -1.74195        0.49288
C         -1.56360       -2.71202        1.46787
C         -1.47600       -4.04405        1.10577
C         -1.44874       -4.39652       -0.22926
C         -1.51811       -3.42181       -1.20444
C         -1.60363       -2.09152       -0.83852
H         -1.66452       -1.31394       -1.58365
H         -1.60652       -2.43074        2.50711
C         -3.32800        0.67252        0.61149
C         -4.36212       -0.17162        0.27710
C         -5.62396        0.34537        0.04523
C         -5.83893        1.70565        0.14837
C         -4.79711        2.54890        0.48145
C         -3.53604        2.02878        0.71341
H         -2.70966        2.67568        0.96291
H         -4.17649       -1.23023        0.19317
Pd        -0.08849        0.80858       -0.58318
Cl         1.41595        1.44200       -2.12885
Cl        -1.85516        1.16785       -1.93165
H         -2.01799       -0.05490        3.24681
H         -1.25104        1.44721        2.77400
H          0.22793       -1.22907        2.74943
H          0.18596       -0.20911        4.16424
H          2.24885        0.34299        3.08307
H          1.18363        1.67480        2.68155
H          6.33985        0.92584       -0.72802
H          4.16721        4.49751        0.09820
H          2.46751       -4.44208        1.72338
H          2.00067       -3.37292       -2.37484
H         -1.42853       -4.80626        1.86608
H         -1.50142       -3.69463       -2.24673
H         -6.43565       -0.31230       -0.21914
H         -4.96362        3.61095        0.55592
H          6.23890        3.38132       -0.61773
H          2.34771       -5.08947       -0.64558
H         -1.37640       -5.43447       -0.51046
H         -6.82086        2.11042       -0.03514
