111
-148.55733419
P         -2.18323        2.46111        0.26712
P         -0.09030        0.09103        0.55601
C         -1.58170        1.98721        1.90579
C         -0.69258        0.94235        2.02700
C         -2.05574        4.28576       -0.00009
C         -0.96001        4.60177       -0.99508
C         -2.01030        2.66342        3.02958
H         -2.70583        3.48046        2.92547
C         -1.54475        2.28671        4.27767
H         -1.87874        2.81301        5.15691
C         -0.65302        1.23777        4.39727
H         -0.28918        0.94570        5.36859
C         -0.22387        0.56408        3.26738
H          0.47832       -0.25160        3.34136
Pd        -1.11529        1.11540       -1.25842
Cl        -2.42705        1.93361       -2.87705
Cl         0.09684       -0.30862       -2.50560
C         -3.47313        4.67116       -0.46510
C         -4.00885        2.22800        0.07260
H          0.01013        4.24036       -0.64512
H         -1.16080        4.12182       -1.95499
H         -0.87872        5.67677       -1.17277
H         -3.49242        4.68020       -1.56361
H         -3.71148        5.70058       -0.15735
H         -4.14915        1.76106       -0.91147
C         -4.54308        3.67183        0.05977
C         -4.57811        1.34974        1.16653
H         -1.83568        4.72941        0.97964
H         -4.83602        3.95049        1.08132
H         -5.46499        3.73309       -0.53835
H         -5.65123        1.19241        1.03538
H         -4.09046        0.37240        1.18347
H         -4.42893        1.80416        2.14729
C         -1.27620       -4.30398        0.50215
C         -0.05625       -3.92510        1.11950
C          0.29742       -2.58569        1.11097
C         -0.53775       -1.64041        0.57506
C         -1.76750       -1.98798        0.07976
C         -2.18341       -3.30865        0.05798
O         -1.57267       -5.67933        0.30624
C          0.88537       -4.95056        1.77118
H          1.23689       -2.26063        1.52261
H         -2.40177       -1.20722       -0.30373
C         -3.58675       -3.63515       -0.47676
C          4.26970        1.13190       -0.24076
C          3.80077       -0.16760       -0.56272
C          2.47140       -0.46641       -0.31571
C          1.64521        0.44001        0.29336
C          2.11443        1.66690        0.68554
C          3.43379        2.03007        0.47092
O          5.56150        1.54662       -0.66127
C          4.69392       -1.23574       -1.21272
H          2.05218       -1.40707       -0.62658
H          1.42419        2.34697        1.15506
C          3.92380        3.39457        0.98047
C          0.08440       -6.08682        2.43272
C          1.83544       -5.52322        0.70886
C          1.73447       -4.28991        2.88066
C         -4.16597       -4.88824        0.20429
C         -4.56581       -2.47446       -0.18511
C         -3.51248       -3.83997       -1.99759
C         -1.13357       -6.19641       -0.94363
H          0.74496       -6.78343        2.94832
H         -0.62084       -5.68617        3.16011
H         -0.48108       -6.65321        1.69663
H          2.41975       -4.72880        0.24685
H          2.52856       -6.23905        1.15006
H          1.28662       -6.03118       -0.07977
H          2.30712       -5.03908        3.42697
H          2.44964       -3.57854        2.46999
H          1.09986       -3.76726        3.59592
H         -3.57435       -5.77223       -0.01873
H         -4.18292       -4.76288        1.28641
H         -5.18480       -5.08082       -0.13093
H         -4.55184       -2.21292        0.87258
H         -4.32200       -1.58467       -0.76369
H         -5.58604       -2.75420       -0.44670
H         -2.84357       -4.65787       -2.25389
H         -4.49542       -4.06571       -2.41013
H         -3.13819       -2.94175       -2.48836
H         -0.58052       -5.43613       -1.49672
H         -0.49404       -7.06255       -0.77404
H         -1.99271       -6.51995       -1.53067
C          5.58591        2.15657       -1.94582
C          4.22492       -2.65365       -0.81438
C          4.60834       -1.10467       -2.74101
C          6.15449       -1.10057       -0.74585
C          3.13409        3.82282        2.23889
C          5.40884        3.33490        1.38161
C          3.71095        4.45325       -0.11222
H          4.14775       -2.74570        0.26870
H          3.25695       -2.89416       -1.25133
H          4.92939       -3.40753       -1.16507
H          5.21884       -1.86128       -3.23310
H          3.57981       -1.22677       -3.07998
H          4.95085       -0.12781       -3.07327
H          6.77324       -1.89645       -1.15965
H          6.58594       -0.15312       -1.05839
H          6.21611       -1.15309        0.34062
H          3.56481        4.72229        2.67822
H          2.09438        4.04828        2.00583
H          3.15428        3.03844        2.99508
H          5.74024        4.28486        1.80021
H          5.57343        2.55909        2.12861
H          6.04258        3.11365        0.52649
H          4.26779        4.20852       -1.01326
H          4.03647        5.43607        0.22772
H          2.65757        4.52143       -0.38261
H          4.58001        2.19997       -2.36537
H          5.99051        3.16523       -1.86383
H          6.23296        1.58473       -2.61070
