105
-153.06282671
Cl         0.11170        2.16698        2.98992
Pd        -0.51848        1.28650        1.01689
P         -1.11269        0.51964       -1.13180
N         -0.68026       -0.97813       -1.95337
C          0.22071       -1.98530       -1.61002
C          0.35260       -2.47864       -0.28681
C          1.29284       -3.49801       -0.02212
C          1.39653       -4.05253        1.37980
C          2.62370       -4.94354        1.63273
C          2.85997       -5.90395        0.46442
C          3.07841       -5.12119       -0.83797
C          2.06151       -4.03060       -1.06147
C          1.88423       -3.55577       -2.35456
C          0.98078       -2.56272       -2.62607
H          0.86485       -2.19639       -3.63123
H          2.47866       -3.97275       -3.14988
H          4.07815       -4.67102       -0.83559
H          3.70991       -6.57002        0.67053
H          3.51059       -4.31103        1.76513
H          1.40425       -3.21695        2.08833
C         -0.64817       -2.12479        0.74961
C         -0.23767       -1.52107        1.96994
C         -1.17505       -1.39857        3.00023
C         -2.46594       -1.82911        2.83646
C         -2.88927       -2.40912        1.64680
C         -4.31591       -2.89722        1.56324
C         -4.76893       -3.29564        0.14915
C         -3.66871       -4.07368       -0.57708
C         -2.39127       -3.22910       -0.69036
C         -1.97972       -2.55778        0.59767
H         -1.56255       -3.85169       -1.04996
H         -4.01141       -4.40117       -1.56887
H         -5.01211       -2.39455       -0.42697
H         -4.97806       -2.12289        1.97044
H         -3.17245       -1.72154        3.64210
H         -0.87328       -0.93443        3.92279
N          1.05017       -0.99456        2.15460
P          1.59281        0.22412        1.00325
C          2.59908       -0.34259       -0.35587
C          2.41891        0.23522       -1.58761
C          3.23826       -0.12838       -2.64046
C          4.24614       -1.06615       -2.45717
C          4.43343       -1.61000       -1.19283
C          3.61063       -1.24677       -0.14170
H          3.75020       -1.66181        0.84387
H          5.22668       -2.32086       -1.03700
C          5.13281       -1.45635       -3.58749
H          3.09635        0.31271       -3.61212
H          1.63244        0.95884       -1.71847
C          2.54930        1.53211        1.77572
C          3.26618        1.28912        2.92262
C          4.00961        2.30614        3.49372
C          4.03731        3.57010        2.91929
C          3.32248        3.78813        1.74909
C          2.58031        2.77019        1.17806
H          2.01965        2.93672        0.27107
H          3.34894        4.76071        1.28819
C          4.85307        4.65979        3.52304
H          4.57436        2.12325        4.39190
H          3.24941        0.30555        3.36316
H          1.19389       -0.55152        3.05286
H         -0.95158       -0.88374       -2.92396
C         -0.61309        1.91495       -2.15399
C         -0.86492        3.19730       -1.72850
C         -0.46434        4.27444       -2.49534
C          0.18563        4.07558       -3.70532
C          0.43171        2.77486       -4.12300
C          0.02746        1.70036       -3.35229
H          0.22850        0.69319       -3.67643
H          0.94616        2.60857       -5.05408
C          0.64517        5.23567       -4.51813
H         -0.65390        5.27880       -2.15694
H         -1.38209        3.34915       -0.79600
C         -2.90961        0.51949       -1.12007
C         -3.56359        0.82174       -2.29105
C         -4.94672        0.81951       -2.32872
C         -5.68348        0.52489       -1.18975
C         -5.00479        0.21372       -0.02021
C         -3.62270        0.20209        0.00964
H         -3.09273       -0.03564        0.91775
H         -5.56652       -0.01651        0.86870
C         -7.17166        0.50033       -1.22956
H         -5.46233        1.05058       -3.24512
H         -2.98891        1.05984       -3.17249
Cl        -2.39503        2.53210        1.00958
H          3.06601       -5.80297       -1.69803
H          2.51556       -5.49812        2.57557
H          1.98891       -6.56192        0.35265
H          0.47999       -4.61341        1.59787
H         -3.44785       -4.99418       -0.02225
H         -2.53052       -2.45443       -1.45333
H         -4.42551       -3.75518        2.23737
H         -5.69952       -3.87947        0.18620
H          4.60972       -1.38056       -4.54185
H          6.01112       -0.81100       -3.63196
H          5.47589       -2.48640       -3.48007
H          4.41183        5.63750        3.32450
H          4.92522        4.54385        4.60533
H          5.86497        4.65766        3.11563
H         -0.03891        6.07975       -4.42010
H          1.63455        5.56505       -4.19785
H          0.70254        4.97786       -5.57656
H         -7.59505        0.81592       -0.27499
H         -7.55684        1.17017       -1.99957
H         -7.53670       -0.50507       -1.44404
