87
-129.17969048
P         -1.58241       -0.30531       -0.38366
P          1.69503        0.34169        0.35964
C         -1.15705        0.99383       -1.54834
C          1.54785       -0.70077       -1.11611
C         -0.03234        0.81824       -2.34363
C          0.30146        1.81618       -3.28079
C         -0.51534        2.92926       -3.39623
C         -1.63276        3.07990       -2.60082
C         -1.95206        2.10644       -1.67451
C          2.22786       -1.89180       -1.00443
C          2.14749       -2.84188       -2.00442
C          1.36320       -2.59940       -3.11045
C          0.65409       -1.41751       -3.23729
C          0.75634       -0.43661       -2.23228
Cl         0.92261       -0.54591        3.38294
Cl        -1.62448       -2.17808        2.21124
H         -2.25426        3.95461       -2.70060
H         -2.82924        2.20809       -1.05746
H          2.81508       -2.08200       -0.11807
H          2.68402       -3.77187       -1.91200
H         -0.26419        3.68667       -4.11920
H          1.28306       -3.34186       -3.88634
C         -2.59780       -4.04463       -2.75380
C         -1.69086       -4.13553       -1.70682
C         -1.40169       -2.98790       -0.97913
C         -2.00733       -1.79316       -1.28998
C         -2.91112       -1.71211       -2.32317
C         -3.21004       -2.84450       -3.05814
H         -2.81939       -4.92500       -3.33267
C         -1.00153       -5.41722       -1.39707
H         -0.69279       -3.03197       -0.16981
H         -3.36594       -0.76218       -2.55707
H         -3.91317       -2.78753       -3.87282
C         -5.09318        1.01741        2.20116
C         -5.17774       -0.15813        1.48130
C         -4.11930       -0.55900        0.68802
C         -2.98663        0.21735        0.61940
C         -2.89895        1.38524        1.33977
C         -3.95325        1.80733        2.13886
H         -5.91493        1.32849        2.82336
H         -6.06539       -0.76626        1.54190
H         -4.16645       -1.48058        0.13121
H         -2.00381        1.97903        1.28128
C         -3.83820        3.06902        2.91992
C          6.06033        0.25644        1.64015
C          5.71949        0.57892        0.34115
C          4.38988        0.59903       -0.03869
C          3.41442        0.29826        0.88347
C          3.75333       -0.02151        2.17608
C          5.08285       -0.05593        2.57461
H          7.09441        0.24594        1.94008
H          6.48797        0.81594       -0.37627
H          4.10715        0.84399       -1.05058
H          2.97468       -0.24743        2.88235
C          5.44437       -0.37925        3.98176
C          0.36753        4.68952        0.27441
C         -0.04757        3.85345        1.29166
C          0.37141        2.53722        1.31150
C          1.17773        2.06155        0.30325
C          1.62157        2.90059       -0.69114
C          1.21677        4.23058       -0.72270
H          0.04421        5.71635        0.25342
H         -0.68428        4.22959        2.07569
H          0.10803        1.88544        2.12971
H          2.27902        2.51797       -1.45307
C          1.67489        5.14743       -1.80190
Pd        -0.13309       -0.70129        1.41314
C          1.50373        1.69160       -4.15005
C         -0.21276       -1.22113       -4.43288
H          2.19093        0.93310       -3.77309
H          1.22130        1.41558       -5.16668
H          2.04965        2.63477       -4.19885
H          0.38532       -0.97565       -5.31121
H         -0.77852       -2.12723       -4.65441
H         -0.93299       -0.41718       -4.27816
H         -0.77845       -5.49422       -0.33191
H         -1.61973       -6.27381       -1.66921
H         -0.06053       -5.49195       -1.94396
H         -3.56028        3.90236        2.27279
H         -4.78062        3.32449        3.40619
H         -3.07571        2.97553        3.69462
H          5.51035        0.52873        4.58272
H          4.69863       -1.03125        4.43898
H          6.40719       -0.88953        4.03376
H          2.34777        4.64097       -2.49511
H          0.82742        5.52566       -2.37535
H          2.20834        6.00262       -1.38459
