64
-97.21689748
Cl        -1.57119       -0.87805       -2.70110
Cl         1.55923       -1.15111       -3.00242
P          1.89605       -0.72168        0.29113
C          2.03539       -2.39707        1.06861
C          3.69741       -0.38109       -0.02544
P         -1.24689       -0.14678        0.46269
C          1.28760        0.53856        1.46763
C         -0.12815        0.83980        1.52357
C         -0.33584        1.94463        2.44899
C          0.97865        2.39164        2.87785
C          1.98007        1.51177        2.29767
H         -1.29623        2.36635        2.75151
H          1.17716        3.21127        3.57256
Pd         0.15888       -0.89807       -1.27278
H          3.06018        1.57430        2.44377
C         -5.03988        2.03865       -0.82803
C         -4.04632        2.73861       -0.17334
C         -2.89357        2.08776        0.22480
C         -2.73203        0.74582       -0.03624
C         -3.72586        0.04530       -0.68120
C         -4.88211        0.69085       -1.08162
H         -5.93882        2.54430       -1.14107
H         -4.16760        3.79067        0.02655
H         -2.11492        2.62676        0.73474
H         -3.58922       -1.00631       -0.87706
H         -5.65553        0.14207       -1.59345
C         -2.54266       -3.95829        2.56529
C         -2.38135       -2.79224        3.28835
C         -1.99309       -1.63069        2.64463
C         -1.76670       -1.64819        1.28793
C         -1.93492       -2.80378        0.56065
C         -2.32256       -3.96616        1.20156
H         -2.84462       -4.86372        3.06604
H         -2.55625       -2.78621        4.35168
H         -1.85785       -0.71145        3.19250
H         -1.77387       -2.78685       -0.50549
H         -2.45426       -4.87449        0.63686
C          4.06063       -0.44894       -1.49255
H          3.90535        0.62036        0.37376
C          4.40042       -1.46918        0.81010
H          4.61358       -1.08801        1.81954
C          3.52763       -2.74791        0.91582
H          5.37947       -1.70256        0.36675
C          1.57801       -2.34710        2.51037
H          1.40193       -3.07748        0.48313
H          3.84954       -3.36912        1.76408
H          3.67808       -3.36757        0.01986
H          2.19095       -1.64800        3.08279
H          0.54278       -2.01137        2.58809
H          1.65223       -3.32587        2.99014
H          5.13056       -0.29379       -1.64722
H          3.80629       -1.42727       -1.90337
H          3.52815        0.30061       -2.07939
Fe         0.84472        2.43203        0.85353
C          2.22150        3.16717       -0.47379
C          1.39136        4.25653        0.01175
C          0.01464        3.97386       -0.35189
C         -0.00641        2.69316       -1.03259
C          1.35410        2.20427       -1.12380
H          3.30917        3.10176       -0.39445
H          1.74668        5.15169        0.52661
H         -0.84704        4.61457       -0.15652
H         -0.88013        2.20908       -1.47294
H          1.66349        1.30522       -1.65911
