171
-217.84506347
P         -1.58267        0.41608       -0.37640
P          1.56437       -0.40555       -0.36637
C         -0.87506        1.37124       -1.72492
C          0.86614       -1.34475       -1.72989
C         -0.09198        0.75456       -2.69376
C          0.53060        1.55328       -3.67245
C          0.31632        2.92138       -3.66688
C         -0.48738        3.51071       -2.71442
C         -1.07509        2.73026       -1.73850
C          1.07850       -2.70140       -1.75693
C          0.50729       -3.47451       -2.74872
C         -0.29646       -2.88099       -3.69878
C         -0.52416       -1.51501       -3.68903
C          0.08748       -0.72233       -2.69865
Cl         1.64414        0.36354        2.79229
Cl        -1.55121       -0.26839        2.89778
C         -1.40154       -0.91278       -4.73045
C          1.40287        0.95438       -4.71997
H         -0.65287        4.57559       -2.72812
H         -1.69630        3.18503       -0.98449
H          1.69365       -3.15828       -0.99852
H          0.68350       -4.53742       -2.77510
H          0.78867        3.52686       -4.42202
H         -0.75901       -3.48166       -4.46376
C         -3.82970       -3.33418       -1.52722
C         -2.84618       -3.41464       -0.54869
C         -2.13977       -2.25828       -0.24715
C         -2.42735       -1.07790       -0.88617
C         -3.40912       -1.01136       -1.84360
C         -4.13295       -2.14804       -2.18500
H         -4.39035       -4.21424       -1.77960
H         -1.36536       -2.27193        0.50002
H         -3.61180       -0.06164       -2.30880
C         -4.36193        2.90507        2.20542
C         -4.88841        1.84082        1.48349
C         -4.02077        1.10297        0.68894
C         -2.69088        1.43323        0.61352
C         -2.18906        2.49039        1.33104
C         -3.01418        3.24186        2.15665
H         -5.02398        3.47632        2.82839
H         -4.37364        0.25361        0.13202
H         -1.13949        2.71871        1.25834
C          4.29465       -2.95710        2.20604
C          2.92768       -3.20889        2.22910
C          2.11315       -2.44380        1.40534
C          2.64741       -1.45550        0.61642
C          3.99836       -1.21380        0.61346
C          4.85382       -1.96862        1.40536
H          4.94632       -3.53240        2.83633
H          1.04759       -2.60027        1.40164
H          4.37817       -0.41631        0.00041
C          3.88760        3.30097       -1.51710
C          2.92181        3.39214       -0.52213
C          2.20307        2.24640       -0.21196
C          2.44569        1.06862       -0.87313
C          3.40381        0.99262       -1.85382
C          4.14981        2.11556       -2.19401
H          4.46860        4.16922       -1.76470
H          1.46099        2.26763        0.56755
H          3.57181        0.04564       -2.33786
Pd        -0.00848        0.05327        1.30241
C         -1.18294       -5.26965       -0.37561
C         -2.50939       -4.72524        0.17706
C         -3.60791       -5.78629       -0.02979
C         -2.37416       -4.46651        1.69163
H         -0.38335       -4.54141       -0.24863
H         -0.89173       -6.18812        0.13363
H         -1.27079       -5.48591       -1.44001
H         -3.38936       -6.68592        0.54549
H         -4.57832       -5.41072        0.29455
H         -3.68268       -6.08032       -1.07632
H         -2.18922       -5.39565        2.23040
H         -1.54931       -3.79139        1.91307
H         -3.28632       -4.02190        2.08885
C         -5.40764       -0.73019       -3.87106
C         -5.27875       -2.11483       -3.20654
C         -6.60144       -2.43475       -2.48604
C         -5.02411       -3.16320       -4.30611
H         -4.48777       -0.45340       -4.38502
H         -6.21119       -0.72801       -4.60742
H         -5.63628        0.03946       -3.13409
H         -7.44123       -2.40602       -3.18010
H         -6.57489       -3.42559       -2.03386
H         -6.79323       -1.71166       -1.69382
H         -4.99630       -4.17177       -3.89582
H         -5.81031       -3.13453       -5.06039
H         -4.07327       -2.98003       -4.80454
C         -6.69206        1.10172        3.05611
C         -6.37894        1.49244        1.60054
C         -6.75940        0.31256        0.68355
C         -7.22414        2.71393        1.19473
H         -7.74097        0.82888        3.17057
H         -6.08520        0.25035        3.36386
H         -6.48397        1.92427        3.73942
H         -7.82226        0.08556        0.76522
H         -6.55062        0.54601       -0.36036
H         -6.20938       -0.58886        0.95341
H         -8.28860        2.48530        1.24492
H         -7.03574        3.56330        1.85017
H         -6.99240        3.01992        0.17468
C         -2.16487        5.58599        1.98647
C         -2.42650        4.41705        2.95084
C         -1.10326        3.98785        3.61810
C         -3.38872        4.88792        4.05884
H         -1.71989        6.43299        2.50834
H         -1.48803        5.28741        1.18745
H         -3.09393        5.92109        1.52568
H         -0.33835        3.75233        2.88009
H         -0.71044        4.78277        4.25167
H         -1.25388        3.10442        4.23819
H         -2.93113        5.67326        4.66039
H         -4.30824        5.29469        3.63908
H         -3.64682        4.06499        4.72521
C          1.55059       -5.30265        2.30878
C          2.28763       -4.25133        3.15652
C          1.28629       -3.54366        4.09016
C          3.34011       -4.96984        4.02200
H          1.09763       -6.06721        2.93971
H          0.75793       -4.84372        1.72155
H          2.23701       -5.79413        1.61959
H          0.82548       -4.25167        4.77853
H          1.78690       -2.77502        4.67840
H          0.48922       -3.06104        3.52603
H          3.87699       -4.26255        4.65386
H          2.86755       -5.70285        4.67574
H          4.06315       -5.49917        3.40171
C          6.77827       -0.60317        0.45191
C          6.36707       -1.71248        1.44093
C          7.11391       -3.00398        1.06004
C          6.77129       -1.27551        2.86056
H          6.50722       -0.86938       -0.56962
H          6.29918        0.34338        0.70174
H          7.85596       -0.44235        0.47648
H          8.19193       -2.84362        1.05434
H          6.90143       -3.80803        1.76354
H          6.81742       -3.34076        0.06682
H          7.83931       -1.06554        2.91553
H          6.23351       -0.37348        3.15207
H          6.54493       -2.05026        3.59219
C          3.58815        5.82417       -0.16662
C          2.63905        4.68600        0.25352
C          2.82546        4.42617        1.76093
C          1.19154        5.12839       -0.01922
H          3.37959        6.73054        0.40172
H          4.62838        5.55319        0.01319
H          3.47006        6.06402       -1.22317
H          2.13704        3.66332        2.12189
H          3.83911        4.08501        1.96975
H          2.64783        5.33322        2.33834
H          0.94616        6.03163        0.53904
H          1.04734        5.33609       -1.07887
H          0.48522        4.35112        0.26791
C          6.62155        2.33351       -2.52115
C          5.28152        2.06508       -3.23060
C          5.04584        3.13856       -4.31000
C          5.36188        0.68825       -3.91866
H          7.45183        2.29270       -3.22595
H          6.62934        3.31646       -2.05138
H          6.80142        1.59101       -1.74419
H          4.08374        2.99304       -4.79910
H          5.05446        4.14073       -3.88350
H          5.82144        3.09802       -5.07463
H          5.57711       -0.09962       -3.19711
H          4.42839        0.44625       -4.42532
H          6.15600        0.67490       -4.66505
H         -1.74732        0.07915       -4.43643
H          2.27801        1.57881       -4.89990
H         -2.28318       -1.53112       -4.89967
H         -0.87285       -0.82017       -5.68001
H          0.86596        0.85464       -5.66416
H          1.75835       -0.03412       -4.42600
