105
-153.06447378
Cl         0.04257        1.93331        3.07804
Pd        -0.46396        1.34051        0.96329
P         -1.08455        0.51261       -1.15357
N         -0.65069       -0.98667       -1.97114
C          0.24186       -1.99517       -1.61131
C          0.35461       -2.47824       -0.28305
C          1.28808       -3.49810        0.00238
C          1.36931       -4.04490        1.40880
C          2.59223       -4.93453        1.68593
C          2.84511       -5.90305        0.52784
C          3.08275       -5.12932       -0.77659
C          2.06974       -4.03991       -1.02248
C          1.91017       -3.57557       -2.32174
C          1.01281       -2.58262       -2.61318
H          0.91076       -2.22381       -3.62254
H          2.51317       -4.00120       -3.10591
H          4.08248       -4.67926       -0.76263
H          3.69173       -6.56789        0.75087
H          3.47729       -4.30132        1.82695
H          1.36580       -3.20594        2.11318
C         -0.65796       -2.10824        0.73609
C         -0.25799       -1.49840        1.95596
C         -1.20711       -1.35678        2.97260
C         -2.49940       -1.77789        2.79696
C         -2.91253       -2.36428        1.60695
C         -4.34193       -2.84051        1.50825
C         -4.78384       -3.22039        0.08599
C         -3.69094       -4.02101       -0.62653
C         -2.39245       -3.20614       -0.71868
C         -1.99140       -2.53000        0.57050
H         -1.57016       -3.85031       -1.05431
H         -4.02668       -4.33730       -1.62431
H         -4.99559       -2.31027       -0.48838
H         -5.00213       -2.06563        1.91750
H         -3.21503       -1.65653        3.59250
H         -0.91288       -0.88553        3.89393
N          1.03627       -0.99438        2.15599
P          1.61360        0.22796        1.02638
C          2.60411       -0.31921       -0.35185
C          2.40211        0.27172       -1.57417
C          3.20526       -0.07788       -2.64408
C          4.22580       -1.00622       -2.48519
C          4.42152       -1.57947       -1.23506
C          3.61530       -1.23009       -0.16649
H          3.76539       -1.66381        0.80945
H          5.20662       -2.30434       -1.10452
C          5.06292       -1.41539       -3.64624
H          3.03984        0.36565       -3.61089
H          1.60980        0.99248       -1.68547
C          2.56688        1.51508        1.83786
C          3.28545        1.22921        2.97370
C          4.02292        2.22591        3.58693
C          4.04202        3.51305        3.06622
C          3.32486        3.77523        1.90663
C          2.58897        2.77751        1.29346
H          2.02897        2.97847        0.39326
H          3.34494        4.76653        1.48709
C          4.85047        4.58260        3.71425
H          4.58915        2.00885        4.47652
H          3.27361        0.22812        3.37345
H          1.17581       -0.55784        3.05805
H         -0.92355       -0.90438       -2.94255
C         -0.63106        1.89352       -2.21787
C         -0.93736        3.17940       -1.84206
C         -0.58039        4.24274       -2.64862
C          0.09346        4.02708       -3.84255
C          0.38195        2.72215       -4.21731
C          0.02014        1.66156       -3.40725
H          0.25920        0.65202       -3.69596
H          0.89294        2.54174       -5.14768
C          0.46051        5.16964       -4.72422
H         -0.82431        5.24934       -2.35463
H         -1.45995        3.34506       -0.91515
C         -2.88078        0.50060       -1.09531
C         -3.56052        0.70570       -2.27265
C         -4.94420        0.69698       -2.28095
C         -5.65594        0.48220       -1.10883
C         -4.95183        0.28718        0.07080
C         -3.56956        0.28065        0.07231
H         -3.02150        0.11903        0.98635
H         -5.49356        0.14402        0.98993
C         -7.14466        0.50046       -1.10793
H         -5.47989        0.86323       -3.19989
H         -3.00532        0.87658       -3.18185
Cl        -2.29760        2.64607        0.99127
H          3.08277       -5.81702       -1.63202
H          2.47005       -5.48254        2.63090
H          1.97555       -6.56157        0.40795
H          0.44939       -4.60467        1.61518
H         -3.49980       -4.94824       -0.07189
H         -2.49832       -2.43659       -1.49201
H         -4.46353       -3.70469        2.17229
H         -5.72887       -3.78143        0.10571
H          6.05277       -1.74104       -3.32349
H          4.59690       -2.24036       -4.18689
H          5.19777       -0.58837       -4.34475
H          4.95365        4.40417        4.78544
H          5.85108        4.62762        3.28225
H          4.38354        5.56009        3.58589
H          1.35818        4.94788       -5.30312
H         -0.34542        5.39270       -5.42468
H          0.65784        6.06973       -4.14028
H         -7.51898        1.50808       -0.92259
H         -7.54345        0.16346       -2.06574
H         -7.54541       -0.15545       -0.33375
