75
-122.81163007
P          1.81979       -0.61184        0.09733
C          3.12760       -1.32407       -0.91622
C          2.83815       -1.93339       -2.11548
C          3.85468       -2.49890       -2.86302
C          5.15417       -2.46111       -2.39837
C          5.43821       -1.86577       -1.18563
C          4.41915       -1.30038       -0.44066
H          4.62257       -0.85564        0.52091
H          6.45074       -1.84429       -0.81739
H          5.94716       -2.90075       -2.98110
H          3.63157       -2.96746       -3.80745
H          1.81943       -1.96329       -2.46654
C          1.79064       -1.56266        1.62858
C          1.42524       -0.96787        2.81430
C          1.49276       -1.68108        3.99634
C          1.92026       -2.99367        3.98268
C          2.27671       -3.59264        2.79078
C          2.21391       -2.87251        1.61139
H          2.50547       -3.32324        0.67625
H          2.60749       -4.61811        2.77873
H          1.96897       -3.55340        4.90241
H          1.20325       -1.21515        4.92385
H          1.06948        0.04829        2.80654
C          2.16809        1.11181        0.49948
C          3.33297        1.76806        0.17751
C          3.48225        3.11968        0.45419
C          2.43058        3.79836        1.06858
C          1.25228        3.15776        1.38114
C          1.11389        1.79091        1.09264
O         -0.08302        1.10626        1.35896
C         -1.26803        1.79054        1.04391
C         -1.43169        3.14948        1.35612
C         -2.61309        3.78101        1.03504
C         -3.64590        3.10242        0.38899
C         -3.45497        1.77070        0.04662
C         -2.28534        1.12664        0.37523
P         -1.91627       -0.54719       -0.16132
C         -1.60353       -1.62583        1.23852
C         -1.20070       -2.91953        0.99851
C         -1.07021       -3.80345        2.05471
C         -1.35171       -3.38548        3.34041
C         -1.75768       -2.08649        3.57464
C         -1.88651       -1.20457        2.51749
H         -2.21047       -0.18963        2.68159
H         -1.97271       -1.75925        4.57851
H         -1.24709       -4.07275        4.16396
H         -0.75038       -4.81625        1.87301
H         -1.00585       -3.23542       -0.01454
C         -3.36385       -1.22904       -0.99813
C         -3.58094       -1.04666       -2.34357
C         -4.70887       -1.57146       -2.94368
C         -5.62400       -2.27579       -2.18774
C         -5.41264       -2.45123       -0.83491
C         -4.28042       -1.92375       -0.24054
H         -4.10601       -2.05155        0.81590
H         -6.12772       -2.99749       -0.24200
H         -6.50556       -2.68573       -2.65307
H         -4.87555       -1.42583       -3.99838
H         -2.87421       -0.47355       -2.91732
Pd         0.05102       -0.02689       -1.38446
Cl        -1.32017        0.92855       -2.90313
Cl         1.71999        0.90382       -2.60844
H         -4.21663        1.24091       -0.49894
C         -4.89850        3.80875        0.01066
H         -5.12304        4.61451        0.71071
H         -5.74890        3.12563        0.00744
H         -4.81105        4.24244       -0.98627
H         -2.73107        4.82240        1.27750
S         -0.10027        4.01861        2.14134
H          2.53232        4.84489        1.29557
C          4.75003        3.82200        0.12038
H          4.12432        1.23676       -0.31988
H          5.17601        3.43952       -0.80813
H          4.58603        4.89270       -0.00758
H          5.48826        3.68599        0.91169
