45
-71.81482534
C          2.39805        0.94494        2.50681
P          1.55260        0.74940        0.90221
P         -1.03056        0.28582       -0.85923
C         -0.43674       -0.03514       -2.55451
Cl         1.52192       -2.12908        2.02382
H          3.10759        1.76595        2.45831
H          0.62729        0.17298       -2.61863
Cl        -1.28517       -2.72023        0.09643
C          0.50805        2.15879        0.47264
C         -0.60165        1.95266       -0.31806
C         -1.39151        3.01719       -0.70013
C         -1.06401        4.29709       -0.28846
C          0.05220        4.50523        0.49860
C          0.84295        3.43462        0.87753
H         -2.25893        2.83870       -1.31536
H         -1.67936        5.13095       -0.58373
H          0.30991        5.50241        0.81550
H          1.72315        3.58755        1.48047
Pd         0.12071       -1.06143        0.63070
H         -0.96354        0.60190       -3.25919
H          2.93256        0.03226        2.75412
H         -0.60586       -1.07552       -2.81710
C         -5.47209       -0.48120       -0.23954
C         -4.87432       -0.87851       -1.41928
C         -3.52632       -0.64441       -1.62334
C         -2.78785       -0.01280       -0.64874
C         -3.37773        0.38002        0.53126
C         -4.72604        0.14755        0.73751
H         -6.52187       -0.66563       -0.07955
H         -5.45559       -1.37480       -2.17899
H         -3.04758       -0.95952       -2.53611
H         -2.77934        0.86552        1.28647
H         -5.19079        0.45397        1.66019
C          4.39594       -0.16187       -2.52377
C          3.71500        1.03982       -2.49823
C          2.85998        1.32516       -1.44911
C          2.69796        0.40988       -0.43481
C          3.36577       -0.79224       -0.46050
C          4.22203       -1.08048       -1.50700
H          5.06171       -0.38503       -3.34143
H          3.84735        1.75357       -3.29467
H          2.31464        2.25459       -1.41849
H          3.18832       -1.50637        0.32768
H          4.74582       -2.02188       -1.53136
H          1.66895        1.14844        3.28585
