58
-89.86450915
P          1.47448        0.31833        0.84031
C          1.50202        2.04459        0.34997
C          1.66243        2.33201       -0.98589
C          1.69449        3.64712       -1.41066
C          1.57346        4.66740       -0.48815
C          1.42757        4.37535        0.85398
C          1.39477        3.05808        1.27505
H          1.28614        2.81876        2.32029
H          1.77092        1.51817       -1.68522
C          3.13778       -0.36020        0.82026
C          4.20625        0.49972        0.93780
C          5.49656        0.00082        0.92874
C          5.70674       -1.35804        0.80227
C          4.63196       -2.21711        0.68531
C          3.34300       -1.71532        0.69595
H          2.49798       -2.37629        0.59096
H          4.02559        1.55874        1.03174
C          0.77664        0.05466        2.52240
C          0.13273       -1.32217        2.63563
C         -1.33344       -1.36782        2.22610
P         -1.74581       -0.74183        0.53606
C         -3.40790       -1.33878        0.17561
C         -3.66776       -2.22895       -0.84006
C         -4.95735       -2.67174       -1.06294
C         -5.98727       -2.21604       -0.26460
C         -5.72828       -1.31839        0.75203
C         -4.43405       -0.87967        0.97133
H         -4.21884       -0.17548        1.75972
H         -2.85988       -2.56084       -1.46789
C         -1.83603        1.05658        0.46080
C         -1.77358        1.64827       -0.78044
C         -1.83261        3.02527       -0.89448
C         -1.96391        3.80215        0.23856
C         -2.04469        3.20475        1.48045
C         -1.98582        1.82776        1.59037
H         -2.07561        1.35772        2.55529
H         -1.67593        1.02717       -1.65722
Pd         0.23834       -0.87133       -0.71766
Cl         2.02130       -0.79104       -2.08814
Cl        -0.93148       -2.09734       -2.18258
H         -1.71035       -2.39317        2.26203
H         -1.94437       -0.79656        2.92668
H          0.70704       -2.03383        2.02721
H          0.22666       -1.69326        3.66830
H          1.61447        0.17206        3.21464
H          0.06352        0.84543        2.75253
H          1.81462        3.87305       -2.45737
H          1.33623        5.17256        1.57327
H          6.33479        0.67217        1.01764
H          4.79601       -3.27705        0.58082
H         -5.15805       -3.36769       -1.86092
H         -6.53164       -0.95922        1.37402
H         -1.77063        3.48909       -1.86513
H         -2.15417        3.81118        2.36454
H          1.59572        5.69393       -0.81587
H          6.71129       -1.74854        0.79190
H         -6.99450       -2.55889       -0.43697
H         -2.00373        4.87584        0.15348
