72
-98.10190732
Fe        -0.01604        2.79320       -0.02640
P          1.87566       -0.05747       -0.04863
P         -1.83747       -0.08183       -0.06352
C          1.45019        1.59501        0.62718
C          0.49495        1.86872        1.68721
C          0.44945        3.30408        1.90653
C          1.37129        3.92281        0.97143
C          2.00457        2.86913        0.19592
C         -1.40589        1.55503       -0.76261
C         -2.00310        2.83374       -0.41176
C         -1.37283        3.86886       -1.21344
C         -0.36738        3.23214       -2.04278
C         -0.39795        1.80488       -1.77795
C          3.21541       -0.76666        1.02200
C          4.43538        0.04069        0.54616
C          2.93667        0.17664       -1.55945
C          4.34820        0.40489       -0.96655
C         -3.26638       -0.76994       -1.02354
C         -4.47332       -0.27399       -0.21015
C         -2.67369        0.10744        1.58488
C         -4.15337       -0.22841        1.30642
H         -0.05324        1.12010        2.25802
H         -0.16428        3.82292        2.64655
H          1.57930        4.99216        0.88899
H          2.75845        3.00782       -0.58162
H         -2.81521        2.97983        0.30395
H          0.23355        1.05006       -2.24669
Cl         1.58385       -3.11437       -0.25066
Cl        -1.57857       -3.06803        0.20294
Pd         0.02791       -1.49752       -0.02830
H          3.32869       -1.82135        0.74599
C          2.93891       -0.64086        2.51797
H          2.57209        1.07146       -2.07776
C          2.90647       -1.02372       -2.50442
H          5.36652       -0.50328        0.76870
H          4.48857        0.96177        1.14516
H          4.66948        1.44471       -1.12738
H          5.06918       -0.20324       -1.53080
H         -1.60929        4.93456       -1.19091
H          0.28214        3.73477       -2.76245
H          3.88318       -0.76523        3.06619
H          3.72501       -0.92359       -3.23096
H         -3.19377       -1.86212       -0.96903
C         -3.28572       -0.32094       -2.48022
H         -2.55639        1.16001        1.86846
C         -2.04948       -0.79851        2.64022
H         -5.35451       -0.90316       -0.41007
H         -4.74367        0.73220       -0.56051
H         -4.81338        0.48335        1.82421
H         -4.38029       -1.20840        1.74750
H         -4.25223       -0.59310       -2.92674
H         -0.96245       -0.66380        2.64152
C          1.91681       -1.64363        3.02706
H          2.25409       -2.66877        2.86286
H          1.72133       -1.52704        4.09542
H          0.96660       -1.53770        2.50686
C          1.59449       -1.20435       -3.24702
H          1.34188       -0.31705       -3.83036
H          1.62866       -2.05081       -3.93677
H          0.77471       -1.38983       -2.55545
C         -2.15108       -0.91194       -3.29752
H         -2.18121       -0.58868       -4.34049
H         -1.18639       -0.61428       -2.89008
H         -2.18141       -2.00311       -3.28719
C         -2.60249       -0.55720        4.03658
H         -2.14010       -1.21200        4.77871
H         -2.43054        0.47286        4.35470
H         -3.67955       -0.72935        4.07358
H          2.61451        0.38516        2.73388
H          3.14363       -1.92700       -1.92741
H         -3.25046        0.77586       -2.51376
H         -2.20304       -1.84423        2.34274
