111
-148.55217631
P         -1.80215        2.74254        0.31270
P         -0.37884       -0.07483        0.55573
C         -1.48021        2.03400        1.95107
C         -0.93620        0.77060        2.04990
C         -0.95249        4.36381        0.07697
C         -0.18375        4.35578       -1.22728
C         -1.75700        2.75463        3.09518
H         -2.14017        3.75826        3.01221
C         -1.51576        2.19496        4.33792
H         -1.73620        2.75577        5.23154
C         -0.98795        0.92174        4.43428
H         -0.79585        0.48772        5.40171
C         -0.68638        0.21182        3.28595
H         -0.24161       -0.76880        3.34397
Pd        -1.30368        1.09304       -1.22047
Cl        -2.49136        2.18275       -2.77419
Cl        -0.55415       -0.59632       -2.50026
C         -2.12137        5.36973        0.10373
C         -3.56668        3.24844        0.04165
H         -0.85926        4.18122       -2.06728
H          0.32198        5.30850       -1.40247
H          0.56747        3.56210       -1.24370
H         -1.86462        6.24789       -0.50689
H         -2.26411        5.75006        1.12601
H         -3.93495        2.62508       -0.78472
C         -3.44498        4.72362       -0.39505
C         -4.42855        3.03703        1.26824
H         -0.27796        4.50711        0.93175
H         -4.31423        5.28816       -0.02777
H         -3.49061        4.79223       -1.49187
H         -4.11032        3.68698        2.08386
H         -5.47732        3.26449        1.06359
H         -4.36950        2.00523        1.62211
C         -0.98993       -4.58730        0.50498
C          0.06498       -4.03325        1.27477
C          0.23615       -2.65825        1.26165
C         -0.63979       -1.84478        0.59064
C         -1.72598       -2.36804       -0.06018
C         -1.94870       -3.73441       -0.09810
O         -1.06427       -5.99239        0.31032
C          1.02950       -4.90367        2.09624
H          1.07111       -2.20207        1.76506
H         -2.38951       -1.68870       -0.56735
C         -3.18942       -4.26559       -0.83264
C          3.90397        1.19862       -0.31976
C          3.45582       -0.07554       -0.75354
C          2.14761       -0.43871       -0.48078
C          1.32875        0.37545        0.25521
C          1.78480        1.56754        0.75662
C          3.08443        1.98734        0.52826
O          5.15378        1.70602       -0.76443
C          4.34569       -1.04873       -1.54202
H          1.73893       -1.35792       -0.86284
H          1.10399        2.17322        1.32820
C          3.58923        3.27828        1.19335
C          0.31434       -6.15100        2.64698
C          2.21851       -5.32066        1.21812
C          1.56959       -4.11997        3.31399
C         -3.69356       -5.57593       -0.20135
C         -4.35161       -3.24987       -0.74672
C         -2.84244       -4.48620       -2.31305
C         -0.35093       -6.45887       -0.82821
H         -0.02591       -6.80010        1.84390
H          0.97885       -6.73498        3.28327
H         -0.55587       -5.86517        3.23691
H          2.92437       -5.93119        1.78069
H          1.89113       -5.89528        0.35542
H          2.74968       -4.44417        0.84998
H          2.15077       -4.77145        3.96626
H          2.22521       -3.30516        3.01033
H          0.75137       -3.70310        3.90070
H         -2.95855       -6.37118       -0.29497
H         -3.90030       -5.43588        0.85912
H         -4.60957       -5.91618       -0.68369
H         -4.14098       -2.34625       -1.31673
H         -5.26850       -3.67630       -1.15299
H         -4.54378       -2.96722        0.28796
H         -3.70665       -4.85156       -2.86708
H         -2.51454       -3.55449       -2.77363
H         -2.03913       -5.21005       -2.42649
H         -1.04179       -6.93221       -1.52555
H          0.15655       -5.63084       -1.32486
H          0.38229       -7.20374       -0.51928
C          5.07796        2.44036       -1.97986
C          3.97231       -2.51136       -1.21053
C          4.13938       -0.81411       -3.04599
C          5.83079       -0.87623       -1.17464
C          2.84002        3.53695        2.52050
C          5.08655        3.16776        1.53426
C          3.35072        4.47289        0.25860
H          3.99797       -2.67796       -0.13423
H          2.97953       -2.77019       -1.57526
H          4.67385       -3.20493       -1.67353
H          3.09665       -0.97244       -3.32039
H          4.40284        0.20355       -3.32516
H          4.75158       -1.49578       -3.63579
H          6.19845        0.10764       -1.45391
H          5.97642       -0.99431       -0.10139
H          6.44887       -1.61504       -1.68422
H          1.79209        3.78001        2.35146
H          2.88873        2.66344        3.17012
H          3.28071        4.37756        3.05595
H          5.43446        4.05389        2.06453
H          5.27360        2.29939        2.16506
H          5.68998        3.06391        0.63559
H          3.85619        4.33691       -0.69416
H          3.71766        5.39669        0.70517
H          2.28828        4.59799        0.05753
H          5.50746        3.43135       -1.83312
H          5.65176        1.93166       -2.75412
H          4.04026        2.53602       -2.30219
