111
-148.55425518
P         -2.36993        2.33073        0.09507
P         -0.01632        0.21731        0.50339
C         -1.70602        2.01742        1.75152
C         -0.69999        1.09235        1.92191
C         -2.55013        4.14910       -0.19408
C         -1.82409        4.56324       -1.45526
C         -2.19929        2.70572        2.84135
H         -2.97710        3.43844        2.70036
C         -1.68865        2.45568        4.10348
H         -2.07418        2.99221        4.95502
C         -0.68666        1.51954        4.27270
H         -0.28937        1.32385        5.25505
C         -0.19037        0.83545        3.17730
H          0.59585        0.10498        3.28967
Pd        -1.08708        1.07682       -1.36335
Cl        -2.55512        1.70159       -2.94326
Cl         0.34351       -0.04644       -2.67076
C         -4.07922        4.34662       -0.25545
C         -4.12722        1.78735       -0.11797
H         -2.23722        4.04610       -2.32296
H         -1.91496        5.63687       -1.63681
H         -0.76068        4.31735       -1.40127
H         -4.31492        5.17032       -0.94496
H         -4.45542        4.66721        0.72713
H         -4.11443        0.97679       -0.85915
C         -4.81293        3.04591       -0.68716
C         -4.71886        1.30219        1.18840
H         -2.11803        4.65439        0.68043
H         -5.86496        3.06853       -0.36739
H         -4.83734        2.99127       -1.78553
H         -4.11815        0.50010        1.62333
H         -4.76023        2.11285        1.91752
H         -5.73721        0.92973        1.05403
C         -1.27090       -4.15968        0.52751
C          0.02294       -3.80900        0.99139
C          0.39143       -2.47412        0.96452
C         -0.49125       -1.50711        0.55949
C         -1.78100       -1.82848        0.22306
C         -2.21436       -3.14428        0.22708
O         -1.60607       -5.52726        0.33914
C          1.02583       -4.86036        1.49292
H          1.38082       -2.17001        1.25756
H         -2.44853       -1.03124       -0.05529
C         -3.67816       -3.44723       -0.13054
C          4.43842        1.04207       -0.00423
C          3.87310       -0.12544       -0.57719
C          2.51584       -0.34593       -0.41240
C          1.74715        0.49557        0.34774
C          2.30962        1.57157        0.98467
C          3.66127        1.84967        0.86471
O          5.76524        1.42731       -0.33340
C          4.69157       -1.12479       -1.40905
H          2.02979       -1.16867       -0.90737
H          1.66915        2.20541        1.57305
C          4.25319        3.03367        1.64542
C          2.02803       -4.23376        2.48856
C          0.30075       -5.99639        2.23719
C          1.81371       -5.42791        0.30280
C         -4.59991       -2.29163        0.31968
C         -3.80317       -3.60530       -1.65376
C         -4.17798       -4.71690        0.58232
C         -1.34079       -6.01630       -0.96971
H          2.65656       -5.00159        2.93914
H          2.69291       -3.52457        1.99765
H          1.50473       -3.71636        3.29226
H          1.01191       -6.71469        2.64430
H         -0.29028       -5.59915        3.06174
H         -0.37125       -6.53748        1.57527
H          1.15704       -5.92986       -0.40269
H          2.32835       -4.63189       -0.23329
H          2.56008       -6.14840        0.63646
H         -4.42544       -1.38894       -0.26289
H         -5.64827       -2.55806        0.18722
H         -4.44393       -2.05978        1.37287
H         -3.49183       -2.69266       -2.16165
H         -3.17692       -4.41520       -2.01980
H         -4.83245       -3.81751       -1.94164
H         -4.05367       -4.62483        1.66076
H         -5.23363       -4.89200        0.37626
H         -3.63030       -5.59796        0.25864
H         -2.27475       -6.29963       -1.45422
H         -0.83848       -5.25366       -1.56624
H         -0.71100       -6.90353       -0.90494
C          5.85483        2.26585       -1.47870
C          6.15603       -1.18036       -0.93767
C          4.11958       -2.55231       -1.25740
C          4.62388       -0.72215       -2.89000
C          5.72165        2.76933        2.02488
C          4.14772        4.30818        0.79439
C          3.48046        3.25666        2.96575
H          6.20831       -1.42158        0.12350
H          6.71553       -1.93798       -1.48582
H          6.65890       -0.22859       -1.08777
H          4.76506       -3.28221       -1.74544
H          4.04142       -2.82527       -0.20551
H          3.13430       -2.64328       -1.71185
H          5.18436       -1.42023       -3.51116
H          3.59141       -0.71263       -3.23872
H          5.03396        0.27278       -3.04679
H          6.35006        2.68217        1.14203
H          6.12095        3.57954        2.63448
H          5.81082        1.84285        2.59114
H          3.10842        4.51878        0.54311
H          4.54708        5.16926        1.32965
H          4.69923        4.20687       -0.13721
H          3.42646        2.33445        3.54377
H          2.46570        3.60846        2.78571
H          3.97451        4.00855        3.58071
H          6.34965        3.19907       -1.21004
H          6.44953        1.77435       -2.24842
H          4.86000        2.48078       -1.87095
