171
-217.83811034
P         -1.47219        0.23969       -0.30903
P          1.64303       -0.76267        0.31265
C         -0.53424        0.90559       -1.69653
C          0.87789       -1.84447       -0.91413
C          0.27158        0.04453       -2.43019
C          1.03399        0.56103       -3.49553
C          0.91643        1.90403       -3.81572
C          0.09275        2.73964       -3.09021
C         -0.62960        2.23476       -2.02734
C          0.84206       -3.17263       -0.56063
C          0.22935       -4.09685       -1.38433
C         -0.36387       -3.67554       -2.55473
C         -0.35240       -2.34042       -2.92182
C          0.29055       -1.40160       -2.09303
Cl         0.88891       -0.60158        3.47022
Cl        -2.19772       -1.21654        2.65244
C         -1.04161       -1.93266       -4.17669
C          1.94197       -0.31574       -4.28512
H          0.01623        3.78326       -3.34827
H         -1.27598        2.87901       -1.45718
H          1.29076       -3.48295        0.37172
H          0.20855       -5.13830       -1.10782
H          1.47364        2.29288       -4.65083
H         -0.85764       -4.38762       -3.19444
C         -4.56108       -2.64041       -1.95805
C         -4.29774       -1.46285       -2.64727
C         -3.33551       -0.60658       -2.12391
C         -2.68747       -0.91380       -0.95220
C         -2.96472       -2.07966       -0.28622
C         -3.90024       -2.97579       -0.78228
H         -5.31509       -3.30066       -2.34281
H         -3.07377        0.30312       -2.63566
H         -2.46705       -2.28032        0.64530
C         -3.84693        3.66022        1.54704
C         -2.94417        2.98560        2.35815
C         -2.21056        1.94984        1.79626
C         -2.38989        1.58764        0.48156
C         -3.30923        2.25252       -0.29277
C         -4.04665        3.31204        0.21756
H         -4.40941        4.47091        1.97051
H         -1.50123        1.41665        2.39953
H         -3.45146        1.94884       -1.31524
C          5.52799       -2.75695        1.52206
C          5.17144       -2.70880        0.18027
C          3.96090       -2.11043       -0.14677
C          3.15595       -1.58221        0.83308
C          3.52568       -1.63975        2.15216
C          4.72285       -2.23409        2.52633
H          6.46149       -3.21510        1.79296
H          3.63129       -2.05491       -1.17050
H          2.86095       -1.22358        2.88581
C          2.99263        3.43266       -0.75641
C          3.62486        2.34039       -1.33618
C          3.15444        1.07379       -1.01435
C          2.10323        0.91670       -0.14488
C          1.50275        2.00992        0.43563
C          1.94042        3.29500        0.14170
H          3.34933        4.41503       -1.00211
H          3.61777        0.19548       -1.42774
H          0.69702        1.86417        1.13260
Pd        -0.32075       -0.58064        1.58516
C         -5.09467       -2.26954       -4.90201
C         -5.11497       -1.10168       -3.89699
C         -4.55285        0.15006       -4.60011
C         -6.56639       -0.81623       -3.47127
H         -5.65930       -2.01755       -5.79959
H         -4.07566       -2.50553       -5.20506
H         -5.53636       -3.17038       -4.47851
H         -3.51296        0.00273       -4.89053
H         -5.12048        0.37371       -5.50326
H         -4.61019        1.02557       -3.95385
H         -7.01711       -1.69122       -3.00386
H         -6.60327        0.00195       -2.75239
H         -7.17900       -0.54046       -4.32943
C         -5.22698       -5.14759       -0.71636
C         -4.17907       -4.27000       -0.00599
C         -4.70474       -3.91447        1.39727
C         -2.87232       -5.07522        0.11953
H         -6.18120       -4.62815       -0.80203
H         -4.89242       -5.42540       -1.71576
H         -5.40215       -6.06777       -0.15907
H         -5.61647       -3.32167        1.32774
H         -4.92863       -4.81412        1.97002
H         -3.97294       -3.33540        1.95923
H         -3.03786       -6.00730        0.65932
H         -2.47739       -5.32095       -0.86588
H         -2.10922       -4.51142        0.65491
C         -4.16055        3.23924        4.53541
C         -2.79619        3.37974        3.83503
C         -2.31226        4.83761        3.92784
C         -1.78337        2.47676        4.56809
H         -4.52942        2.21691        4.45450
H         -4.08322        3.48767        5.59374
H         -4.90469        3.89975        4.09212
H         -3.02237        5.52097        3.46360
H         -2.18623        5.14163        4.96680
H         -1.35470        4.95768        3.42325
H         -2.09231        1.43215        4.53362
H         -0.79081        2.55630        4.12693
H         -1.69969        2.76116        5.61675
C         -4.26621        4.63718       -1.89689
C         -5.03448        4.04524       -0.70000
C         -5.75348        5.19182        0.03583
C         -6.09261        3.04702       -1.20603
H         -4.93642        5.18657       -2.55773
H         -3.49077        5.32273       -1.55532
H         -3.78571        3.85616       -2.48522
H         -6.32591        4.81574        0.88356
H         -5.04091        5.93191        0.39964
H         -6.44847        5.70287       -0.63038
H         -6.81975        3.54119       -1.85008
H         -5.63451        2.24134       -1.77815
H         -6.62985        2.59901       -0.37038
C          6.32863       -4.78931       -0.60844
C          6.10762       -3.29143       -0.88758
C          7.45502       -2.54784       -0.84049
C          5.51703       -3.14105       -2.30393
H          6.79535       -4.94696        0.36315
H          5.37978       -5.32547       -0.61493
H          6.97418       -5.23594       -1.36450
H          8.13667       -2.92669       -1.60184
H          7.31236       -1.48162       -1.01544
H          7.93858       -2.66573        0.12854
H          4.56355       -3.66218       -2.38894
H          5.36136       -2.09217       -2.55554
H          6.19045       -3.56183       -3.05048
C          4.13127       -1.69162        4.94162
C          5.16927       -2.32298        3.99261
C          6.50435       -1.57542        4.16350
C          5.34732       -3.80224        4.38095
H          3.98350       -0.63588        4.71553
H          3.16944       -2.19810        4.86443
H          4.45975       -1.76391        5.97824
H          7.28752       -2.01743        3.54869
H          6.39979       -0.53050        3.87194
H          6.83810       -1.60502        5.20059
H          5.64460       -3.89848        5.42505
H          4.41548       -4.35041        4.24322
H          6.11150       -4.28299        3.77136
C          5.92203        3.33487       -1.49299
C          4.83659        2.55183       -2.25570
C          4.40322        3.34588       -3.49996
C          5.44363        1.21042       -2.71303
H          6.80971        3.47256       -2.11018
H          5.56730        4.32135       -1.19720
H          6.21818        2.80064       -0.59036
H          3.64820        2.79781       -4.06115
H          3.98161        4.31228       -3.22588
H          5.24965        3.52519       -4.16269
H          4.72146        0.62362       -3.27907
H          6.30856        1.37554       -3.35526
H          5.77452        0.61976       -1.85893
C         -0.17661        4.61350        0.46240
C          1.30595        4.50026        0.85389
C          2.00730        5.82032        0.47937
C          1.42761        4.30295        2.37651
H         -0.65467        5.44944        0.97244
H         -0.28012        4.77310       -0.61024
H         -0.71999        3.70854        0.72504
H          3.06382        5.79236        0.74546
H          1.92297        6.02066       -0.58860
H          1.55606        6.66033        1.00741
H          1.02361        5.15928        2.91573
H          0.88845        3.41575        2.70439
H          2.47146        4.18467        2.66634
H         -2.04709       -2.35230       -4.21260
H          2.32701       -1.13456       -3.67518
H         -0.49876       -2.28783       -5.05380
H         -1.13480       -0.84878       -4.25162
H          2.79777        0.24424       -4.66458
H          1.42152       -0.74695       -5.14105
