64
-97.21309196
Cl        -1.62695       -1.34436       -2.53456
Cl         1.53396       -1.40575       -2.96808
P          1.92373       -0.65555        0.25604
C          2.10791       -2.33101        1.02311
C          3.70920       -0.27851       -0.09119
P         -1.26183       -0.11280        0.43384
C          1.28684        0.58551        1.43590
C         -0.13590        0.84816        1.51424
C         -0.33594        1.95629        2.43703
C          0.97541        2.39456        2.88615
C          1.98109        1.51836        2.30895
H         -1.29589        2.36627        2.75713
H          1.16745        3.19997        3.59942
Pd         0.17106       -0.90820       -1.26480
H          3.06092        1.57640        2.45890
C         -5.01819        2.14149       -0.85799
C         -4.04505        2.80348       -0.13686
C         -2.90344        2.13118        0.25777
C         -2.73032        0.80573       -0.07259
C         -3.70375        0.14454       -0.78666
C         -4.84968        0.81056       -1.18277
H         -5.90902        2.66345       -1.16745
H         -4.17392        3.84259        0.11839
H         -2.14071        2.64290        0.81682
H         -3.55980       -0.89289       -1.04105
H         -5.60672        0.29095       -1.74690
C         -2.59718       -3.92218        2.51782
C         -2.37046       -2.77559        3.25441
C         -1.97228       -1.61416        2.61650
C         -1.80200       -1.61172        1.25144
C         -2.03418       -2.74844        0.51277
C         -2.43184       -3.91064        1.14650
H         -2.90697       -4.82741        3.01414
H         -2.50173       -2.78480        4.32398
H         -1.78565       -0.71069        3.17533
H         -1.91363       -2.71394       -0.55796
H         -2.61384       -4.80326        0.57084
C          4.04451       -0.36968       -1.56403
H          3.90045        0.73500        0.28517
C          4.44712       -1.33544        0.75406
H          4.65362       -0.93555        1.75769
C          3.61143       -2.63738        0.87971
H          5.43039       -1.54611        0.30853
C          1.63340       -2.30534        2.45986
H          1.50056       -3.02578        0.42687
H          3.94955       -3.23423        1.73901
H          3.78336       -3.26774       -0.00483
H          2.21508       -1.58851        3.04287
H          0.58579       -2.00701        2.52712
H          1.73672       -3.28367        2.93513
H          5.10539       -0.18340       -1.74480
H          3.81501       -1.36569       -1.94600
H          3.47474        0.34658       -2.15755
Fe         0.85833        2.48332        0.88460
C          2.21555        3.21584       -0.44227
C          1.38829        4.29395        0.07429
C          0.00814        4.02007       -0.28489
C         -0.01533        2.74469       -0.97699
C          1.34546        2.26516       -1.10732
H          3.30447        3.15386       -0.37727
H          1.74849        5.18104        0.60036
H         -0.85391        4.65286       -0.06549
H         -0.89529        2.26794       -1.41298
H          1.65093        1.36920       -1.64929
