45
-71.81509810
C          0.32457        0.61148        2.49238
P          0.93877        0.63243        0.77427
P         -1.61954        0.27467       -1.03625
C         -2.39071       -0.07245       -2.65154
Cl         1.78488       -2.41845        0.33019
H         -0.76090        0.65209        2.49628
H         -2.75966       -1.09401       -2.66988
Cl        -1.07324       -2.88467       -1.28405
C          0.28248        2.04530       -0.13677
C         -0.81883        1.88978       -0.95044
C         -1.33036        2.97025       -1.63930
C         -0.72463        4.20888       -1.52092
C          0.38352        4.36303       -0.71028
C          0.88822        3.27871       -0.01422
H         -2.20297        2.84130       -2.25872
H         -1.12036        5.05431       -2.05932
H          0.85458        5.32778       -0.61789
H          1.75164        3.38339        0.62312
Pd         0.06071       -1.17136       -0.37985
H         -1.65910        0.05264       -3.44469
H          0.71113        1.46924        3.03529
H         -3.22186        0.60566       -2.82241
C         -4.47487       -0.22367        2.46354
C         -4.01801        1.03505        2.12400
C         -3.15778        1.19001        1.05193
C         -2.76705        0.08752        0.32771
C         -3.21073       -1.16910        0.66821
C         -4.07127       -1.32781        1.73848
H         -5.14511       -0.34500        3.29881
H         -4.32958        1.89530        2.69335
H         -2.78607        2.16433        0.77852
H         -2.85591       -2.01924        0.10772
H         -4.42000       -2.31099        2.00858
C          5.46733        0.46745        0.37338
C          4.89169        0.29593        1.61688
C          3.51638        0.35146        1.75485
C          2.72836        0.58118        0.65014
C          3.29691        0.74796       -0.59220
C          4.67232        0.69294       -0.73277
H          6.53871        0.42128        0.26538
H          5.51237        0.11422        2.47889
H          3.05618        0.20944        2.71904
H          2.66090        0.91772       -1.44713
H          5.12033        0.82198       -1.70429
H          0.64275       -0.30008        2.99017
