105
-153.06416624
Cl         0.02326        1.89505        3.10500
Pd        -0.44834        1.31914        0.97875
P         -1.07114        0.53050       -1.15025
N         -0.58798       -0.93597       -1.99801
C          0.24615       -1.98853       -1.62822
C          0.31837       -2.48424       -0.30302
C          1.22493       -3.52339       -0.00538
C          1.28687       -4.05352        1.40794
C          2.05720       -5.37381        1.56584
C          3.34850       -5.35698        0.74309
C          3.03521       -5.15638       -0.74680
C          2.02880       -4.06521       -1.01213
C          1.89462       -3.60126       -2.31435
C          1.01889       -2.59277       -2.61890
H          0.94411       -2.22731       -3.62829
H          2.50376       -4.03628       -3.08863
H          3.95524       -4.93193       -1.30179
H          3.99156       -4.53971        1.09344
H          2.27305       -5.57646        2.62439
H          1.74610       -3.28605        2.04166
C         -0.67695       -2.08273        0.72161
C         -0.23262       -1.50816        1.94461
C         -1.14741       -1.38039        2.99377
C         -2.44621       -1.79291        2.85158
C         -2.90083       -2.35393        1.66437
C         -4.33066       -2.83626        1.61333
C         -4.64419       -3.76025        0.42652
C         -3.99278       -3.24290       -0.85825
C         -2.46833       -3.14090       -0.69752
C         -2.02125       -2.48437        0.58658
H         -2.02073       -4.14031       -0.75117
H         -4.40010       -2.25330       -1.09918
H         -5.72986       -3.87069        0.29386
H         -4.99397       -1.96505        1.58859
H         -3.13463       -1.68544        3.67273
H         -0.82027       -0.93121        3.91501
N          1.07265       -1.02297        2.11457
P          1.62474        0.20508        0.97675
C          2.62409       -0.34899       -0.39135
C          2.45216        0.25469       -1.61205
C          3.25906       -0.10983       -2.67430
C          4.24432       -1.07524       -2.51184
C          4.42229       -1.64713       -1.25851
C          3.61276       -1.28246       -0.19768
H          3.74331       -1.72104        0.77887
H          5.19533       -2.38336       -1.11953
C          5.11704       -1.46660       -3.65258
H          3.12435        0.35150       -3.63755
H          1.68043        0.99702       -1.72790
C          2.56232        1.51070        1.77767
C          3.29762        1.24110        2.90669
C          4.02183        2.25307        3.51062
C          4.01125        3.53922        2.98731
C          3.27798        3.78514        1.83427
C          2.55538        2.77218        1.23047
H          1.98317        2.96071        0.33524
H          3.27505        4.77565        1.41241
C          4.80599        4.62492        3.62536
H          4.60093        2.04883        4.39495
H          3.30973        0.24087        3.30843
H          1.24770       -0.60668        3.02003
H         -0.84458       -0.84025       -2.97268
C         -0.62385        1.93993       -2.18145
C         -0.94793        3.21370       -1.77993
C         -0.59399        4.29949       -2.55734
C          0.09518        4.11929       -3.74824
C          0.40193        2.82664       -4.14984
C          0.04306        1.74360       -3.36869
H          0.29665        0.74430       -3.67942
H          0.92511        2.67345       -5.07832
C          0.45984        5.28640       -4.59819
H         -0.85166        5.29627       -2.24237
H         -1.48007        3.35302       -0.85425
C         -2.86692        0.48851       -1.11683
C         -3.52416        0.64471       -2.31447
C         -4.90708        0.61321       -2.35235
C         -5.64099        0.43896       -1.18731
C         -4.95942        0.27635        0.01031
C         -3.57741        0.28992        0.04200
H         -3.04710        0.15653        0.97116
H         -5.51991        0.14792        0.92021
C         -7.12831        0.38267       -1.22517
H         -5.42458        0.72822       -3.28937
H         -2.95177        0.79236       -3.21719
Cl        -2.29071        2.61527        1.03272
H          2.65582       -6.09227       -1.17412
H          1.42533       -6.20583        1.23051
H          3.92682       -6.27799        0.90318
H          0.26305       -4.17085        1.78496
H         -4.25392       -3.88299       -1.71286
H         -2.05047       -2.58581       -1.54420
H         -4.56108       -3.34673        2.55734
H         -4.26991       -4.76930        0.64082
H          5.43421       -2.50684       -3.56572
H          4.59299       -1.35965       -4.60343
H          6.01134       -0.84303       -3.68830
H          4.32862        5.59575        3.48521
H          4.90837        4.45929        4.69872
H          5.80716        4.67637        3.19531
H          0.65357        6.17086       -3.98966
H          1.35897        5.08334       -5.18165
H         -0.34586        5.52591       -5.29346
H         -7.56001        0.77789       -0.30457
H         -7.52412        0.97017       -2.05473
H         -7.47366       -0.64521       -1.34489
