111
-148.55329621
P         -2.12073        2.52438        0.84800
P         -0.17723        0.02741        0.59221
C         -1.34931        1.82921        2.32894
C         -0.49847        0.75187        2.21433
C         -1.86029        4.35600        0.77817
C         -0.84892        4.72972       -0.28369
C         -1.57787        2.40263        3.56313
H         -2.24186        3.24833        3.64187
C         -0.94719        1.89386        4.68533
H         -1.12564        2.33911        5.65048
C         -0.08027        0.82458        4.56691
H          0.42096        0.43617        5.43818
C          0.15034        0.25678        3.32660
H          0.84761       -0.55890        3.21520
Pd        -1.32483        1.32659       -0.95046
Cl        -2.57804        2.64257       -2.27070
Cl        -0.32370        0.26727       -2.66090
C         -3.27952        4.90056        0.53151
C         -3.96952        2.45995        0.86718
H         -0.69191        5.81009       -0.32410
H          0.11571        4.25318       -0.09717
H         -1.18615        4.40862       -1.27048
H         -3.42118        5.03609       -0.54956
H         -3.38797        5.90342        0.97169
H         -4.26703        2.12465       -0.13552
C         -4.36777        3.93247        1.07649
C         -4.48236        1.50617        1.92492
H         -1.50375        4.65169        1.77357
H         -4.51344        4.11117        2.15066
H         -5.34334        4.13510        0.60897
H         -5.57401        1.46323        1.92805
H         -4.10274        0.49431        1.76343
H         -4.16212        1.81989        2.91978
C         -1.04817       -4.44007        0.27008
C         -1.10820       -3.81479        1.54181
C         -0.84401       -2.45754        1.62022
C         -0.59976       -1.71553        0.49335
C         -0.66297       -2.29788       -0.74561
C         -0.92019       -3.64840       -0.89883
O         -1.07620       -5.85673        0.17247
C         -1.41343       -4.59515        2.83014
H         -0.81969       -1.96221        2.57331
H         -0.49914       -1.67045       -1.60354
C         -1.02057       -4.23085       -2.31736
C          4.04994        0.98461       -0.78528
C          3.54533       -0.32959       -0.96063
C          2.25856       -0.59958       -0.52830
C          1.51351        0.35386        0.11294
C          2.03133        1.59529        0.37516
C          3.31551        1.92959       -0.02281
O          5.26810        1.36893       -1.40606
C          4.33996       -1.44496       -1.65719
H          1.81022       -1.55996       -0.70913
H          1.40815        2.30623        0.89025
C          3.87739        3.31101        0.34733
C         -2.37584       -5.76475        2.55421
C         -0.10034       -5.12131        3.42906
C         -2.10000       -3.68301        3.87229
C         -1.96422       -5.44651       -2.35500
C         -1.59936       -3.18252       -3.29537
C          0.38112       -4.63119       -2.80241
C          0.20983       -6.46307        0.20622
H         -2.64322       -6.27850        3.47728
H         -3.29259       -5.40554        2.08785
H         -1.92789       -6.49805        1.88811
H          0.40667       -5.79151        2.73907
H          0.57869       -4.29847        3.65154
H         -0.28419       -5.66716        4.35411
H         -2.43396       -4.26235        4.73280
H         -1.42270       -2.91705        4.24717
H         -2.97166       -3.19052        3.44203
H         -2.94841       -5.17981       -1.97135
H         -2.08564       -5.81721       -3.37250
H         -1.58207       -6.26520       -1.75067
H         -1.79419       -3.62867       -4.27024
H         -2.53816       -2.77769       -2.91859
H         -0.91030       -2.35487       -3.45578
H          0.34054       -5.05812       -3.80412
H          1.03940       -3.76349       -2.83335
H          0.83292       -5.36650       -2.14063
H          0.38677       -7.00112       -0.72484
H          0.98408       -5.70666        0.34120
H          0.25378       -7.17891        1.02696
C          5.10564        1.89668       -2.71667
C          4.01413       -1.43057       -3.15865
C          5.85407       -1.27525       -1.43814
C          3.95651       -2.82784       -1.08143
C          3.25879        3.81385        1.67200
C          5.40107        3.24830        0.55832
C          3.53818        4.31584       -0.76398
H          4.55188       -2.21966       -3.68353
H          2.94725       -1.58150       -3.32220
H          4.28478       -0.47946       -3.61116
H          6.40897       -2.10232       -1.88036
H          6.22081       -0.35636       -1.88801
H          6.08607       -1.24131       -0.37420
H          4.60201       -3.60744       -1.48538
H          4.05837       -2.83740        0.00340
H          2.93277       -3.10129       -1.33089
H          3.74883        4.72842        2.00514
H          2.19945        4.04116        1.56280
H          3.37032        3.06870        2.45928
H          5.79209        4.21267        0.88167
H          5.65317        2.50816        1.31702
H          5.91730        2.97477       -0.35864
H          3.90188        5.31208       -0.51365
H          2.46082        4.37724       -0.91345
H          3.98628        4.02363       -1.71033
H          5.54461        2.89312       -2.76535
H          5.62282        1.26175       -3.43566
H          4.04739        1.95070       -2.97569
