87
-129.18798386
P         -1.68401       -0.38608       -0.17943
P          1.64087        0.37936       -0.11169
C         -1.40063        0.91554       -1.39862
C          1.41934       -0.67935       -1.54864
C         -0.40035        0.82848       -2.36382
C         -0.18103        1.92851       -3.21566
C         -0.97675        3.05412       -3.09038
C         -1.96967        3.11845       -2.13763
C         -2.17326        2.04717       -1.29074
C          2.21833       -1.78974       -1.67326
C          2.05787       -2.64512       -2.74527
C          1.08830       -2.38190       -3.68913
C          0.26977       -1.27009       -3.58199
C          0.43997       -0.39243       -2.49311
Cl         1.22915        0.93112        3.02843
Cl        -1.46342       -0.87938        2.96196
H         -2.57781        4.00355       -2.04684
H         -2.94224        2.09634       -0.53814
H          2.97304       -1.98903       -0.93077
H          2.68411       -3.51705       -2.83995
H         -0.80550        3.89045       -3.74675
H          0.95488       -3.04923       -4.52363
C         -1.26830       -4.58670       -1.86046
C         -0.54646       -4.23082       -0.72938
C         -0.70175       -2.94689       -0.22242
C         -1.54837       -2.05081       -0.83336
C         -2.27160       -2.41554       -1.94444
C         -2.13198       -3.69088       -2.46009
H         -1.14563       -5.57444       -2.27097
C          0.41509       -5.17581       -0.09955
H         -0.15248       -2.65017        0.65444
H         -2.92527       -1.69645       -2.41258
H         -2.68854       -3.98107       -3.33609
C         -5.65803        0.26465        1.94844
C         -5.51212       -0.79399        1.07395
C         -4.30714       -0.99290        0.42681
C         -3.25819       -0.13395        0.65813
C         -3.40128        0.92030        1.53082
C         -4.60718        1.13987        2.18539
H         -6.59247        0.41565        2.46158
H         -6.33471       -1.46810        0.89963
H         -4.17731       -1.82060       -0.25073
H         -2.56341        1.56991        1.72474
C         -4.74258        2.25884        3.15699
C          5.15368       -1.09020        2.38786
C          5.21930        0.14585        1.77540
C          4.15625        0.59669        1.01587
C          3.03986       -0.19256        0.87018
C          2.97015       -1.42215        1.48409
C          4.02530       -1.88794        2.25867
H          5.98188       -1.44494        2.97739
H          6.09726        0.76009        1.89091
H          4.18996        1.56307        0.54034
H          2.08752       -2.02864        1.36647
C          3.95317       -3.22794        2.90203
C          2.01527        4.74905       -1.28395
C          2.85141        3.81003       -1.85578
C          2.74557        2.48005       -1.49283
C          1.81234        2.10624       -0.55479
C          0.98592        3.03980        0.02599
C          1.06543        4.37719       -0.34234
H          2.09397        5.78474       -1.56747
H          3.58131        4.11146       -2.58909
H          3.37670        1.72969       -1.94281
H          0.26718        2.72967        0.76570
C          0.16919        5.38607        0.28448
Pd        -0.04751       -0.01976        1.44425
C          0.88875        1.90842       -4.25195
C         -0.76781       -1.02617       -4.62218
H          1.42629        2.85742       -4.27379
H          1.61957        1.12285       -4.05723
H          0.46679        1.73937       -5.24333
H         -1.30593       -1.94542       -4.85762
H         -1.50236       -0.29185       -4.28985
H         -0.31529       -0.65763       -5.54356
H          1.42302       -5.01480       -0.48482
H          0.44404       -5.04147        0.98280
H          0.13899       -6.21225       -0.29832
H         -5.78552        2.55542        3.27685
H         -4.35975        1.96732        4.13601
H         -4.18415        3.13535        2.82498
H          4.29883       -4.00506        2.21884
H          4.57104       -3.26814        3.80016
H          2.92942       -3.46702        3.19394
H          0.60891        5.77722        1.20293
H         -0.01134        6.22548       -0.38853
H         -0.79861        4.94829        0.53411
