58
-89.86686402
P          1.76816       -0.25826        0.86649
C          1.53665        1.52898        0.82396
C          1.35098        2.27708        1.96398
C          1.13124        3.63863        1.86410
C          1.10215        4.24480        0.62391
C          1.29891        3.49405       -0.51732
C          1.51891        2.13316       -0.41308
H          1.66878        1.52865       -1.29432
H          1.38571        1.80367        2.93059
C          3.42669       -0.70680        0.35397
C          4.38348        0.26700        0.17994
C          5.65824       -0.08631       -0.22445
C          5.96381       -1.41365       -0.45258
C          4.99968       -2.38694       -0.27795
C          3.72554       -2.03053        0.12736
H          2.95809       -2.77768        0.25637
H          4.12814        1.29932        0.35668
C          1.39581       -1.01469        2.50650
C         -0.06408       -1.39165        2.71464
C         -1.04415       -0.24053        2.50800
P         -1.60258       -0.12220        0.75441
C         -3.03197       -1.18505        0.53625
C         -2.87757       -2.54977        0.45255
C         -3.98802       -3.35744        0.28448
C         -5.24526       -2.79166        0.20323
C         -5.39546       -1.42156        0.28821
C         -4.28296       -0.61649        0.45552
H         -4.38266        0.45541        0.51904
H         -1.88963       -2.97865        0.50096
C         -1.97596        1.56584        0.26240
C         -2.16698        2.56300        1.19186
C         -2.43628        3.85186        0.76801
C         -2.51692        4.13179       -0.58208
C         -2.33656        3.12585       -1.51052
C         -2.06854        1.83890       -1.08309
H         -1.93143        1.03543       -1.78937
H         -2.10539        2.33437        2.24313
Pd         0.11482       -0.71343       -0.68787
Cl         1.72605       -1.07204       -2.20951
Cl        -1.50873       -1.30612       -2.13120
H         -1.95376       -0.36765        3.10076
H         -0.60015        0.70785        2.81003
H         -0.33197       -2.21174        2.03464
H         -0.18558       -1.80951        3.72631
H          2.04045       -1.89236        2.59852
H          1.73006       -0.31028        3.26952
H          0.97931        4.22583        2.75488
H          1.27405        3.96389       -1.48671
H          6.40943        0.67359       -0.36420
H          5.23654       -3.42203       -0.46155
H         -3.87027       -4.42615        0.21188
H         -6.37591       -0.97927        0.22169
H         -2.57891        4.63749        1.49171
H         -2.40310        3.34133       -2.56419
H          0.92392        5.30495        0.54664
H          6.95579       -1.69022       -0.77072
H         -6.11047       -3.42038        0.06974
H         -2.72290        5.13710       -0.91157
