105
-153.06101381
Cl         2.98630        2.01431       -0.04325
Pd         0.82518        1.66428       -0.56025
P         -1.35771        1.25260       -1.28301
N         -1.44545       -0.36920       -0.70331
C         -0.49461       -1.25906       -1.19596
C         -0.10208       -2.32550       -0.34551
C          1.01539       -3.11014       -0.68070
C          1.46463       -4.18460        0.28625
C          2.75861       -4.92221       -0.10322
C          2.88495       -5.08269       -1.62124
C          2.86298       -3.70880       -2.30653
C          1.68763       -2.86912       -1.88208
C          1.26085       -1.84402       -2.72192
C          0.19656       -1.04655       -2.38887
H         -0.10048       -0.23604       -3.02870
H          1.79332       -1.66859       -3.64121
H          3.78614       -3.16374       -2.07739
H          3.79543       -5.63986       -1.88400
H          3.62430       -4.36118        0.26651
H          1.57824       -3.72551        1.27590
C         -0.99554       -2.69323        0.78512
C         -1.12366       -1.89407        1.95312
C         -1.95516       -2.34801        2.97658
C         -2.66958       -3.51155        2.85411
C         -2.62759       -4.26137        1.68601
C         -3.50099       -5.49023        1.59835
C         -3.29751       -6.32707        0.32476
C         -3.09198       -5.42565       -0.89612
C         -1.85517       -4.53552       -0.70525
C         -1.81222       -3.83560        0.63501
H         -0.95241       -5.14160       -0.83137
H         -3.97747       -4.79244       -1.03348
H         -4.14318       -7.01099        0.16576
H         -4.54873       -5.17316        1.66448
H         -3.30511       -3.83893        3.65966
H         -2.04213       -1.75710        3.87200
N         -0.54273       -0.64094        2.12206
P          0.79608        0.19625        1.31379
C          2.24005       -0.86006        1.41164
C          2.43628       -1.55958        2.57857
C          3.56835       -2.34058        2.73198
C          4.50902       -2.42598        1.71487
C          4.29312       -1.71085        0.54459
C          3.15900       -0.93529        0.39255
H          2.99137       -0.37993       -0.51584
H          5.02256       -1.75978       -0.24561
C          5.74099       -3.24373        1.89103
H          3.72947       -2.88580        3.64617
H          1.70251       -1.48797        3.36618
C          1.08457        1.59498        2.40930
C          0.05510        2.49267        2.56189
C          0.21841        3.59538        3.38007
C          1.41323        3.79999        4.05635
C          2.44362        2.88513        3.88298
C          2.27780        1.78362        3.06408
H          3.07965        1.07826        2.92152
H          3.38043        3.04506        4.38888
C          1.60315        5.00362        4.91210
H         -0.58111        4.30785        3.49009
H         -0.86746        2.33867        2.02593
H         -0.66359       -0.20002        3.02544
H         -1.35586       -0.31332        0.31096
C         -2.01873        1.30278       -2.94602
C         -1.47025        2.11548       -3.90816
C         -1.99616        2.12189       -5.18580
C         -3.08062        1.31591       -5.50609
C         -3.61444        0.49246       -4.52337
C         -3.08486        0.48854       -3.24477
H         -3.48753       -0.15457       -2.47774
H         -4.44469       -0.14851       -4.76606
C         -3.63177        1.30128       -6.88948
H         -1.56468        2.75224       -5.94450
H         -0.62609        2.73348       -3.65326
C         -2.21870        2.35781       -0.17195
C         -3.07261        1.84697        0.77608
C         -3.64976        2.69491        1.70406
C         -3.36358        4.05378        1.69381
C         -2.50086        4.54926        0.72469
C         -1.92340        3.69989       -0.20101
H         -1.20653        4.06357       -0.92032
H         -2.27160        5.60097        0.70874
C         -3.99125        4.96393        2.69128
H         -4.32119        2.30374        2.44926
H         -3.27336        0.78793        0.79616
Cl         0.88947        3.26854       -2.13817
H          2.85064       -3.82430       -3.39786
H          2.81387       -5.89993        0.39560
H          2.04867       -5.68788       -1.99339
H          0.65828       -4.91400        0.41022
H         -3.00972       -6.02295       -1.81524
H         -1.81142       -3.77891       -1.49911
H         -3.32660       -6.10753        2.48891
H         -2.41814       -6.97176        0.44865
H          5.53082       -4.15319        2.45578
H          6.15933       -3.54126        0.92840
H          6.50475       -2.68138        2.42977
H          2.01044        5.83131        4.32993
H          0.65770        5.33096        5.34693
H          2.29155        4.79844        5.73311
H         -3.50826        2.27148       -7.37272
H         -3.12419        0.55372       -7.50057
H         -4.69718        1.06686       -6.88653
H         -4.06154        4.48477        3.66882
H         -3.40956        5.87869        2.81303
H         -4.99827        5.24457        2.37998
