111
-148.55389171
P         -2.68302        2.00417        0.40190
P          0.16463        0.62590        0.29673
C         -1.58064        2.08794        1.84410
C         -0.31836        1.54035        1.77086
C         -3.78818        3.49258        0.36232
C         -3.71158        4.22164       -0.96064
C         -1.99898        2.68900        3.01484
H         -2.99386        3.09763        3.07933
C         -1.14653        2.74775        4.10395
H         -1.47385        3.21705        5.01732
C          0.12085        2.20374        4.02349
H          0.78336        2.24681        4.87226
C          0.53422        1.59253        2.85379
H          1.51243        1.14411        2.78013
Pd        -1.32122        1.31349       -1.34564
Cl        -3.02343        1.77646       -2.72510
Cl         0.07319        0.48706       -2.89785
C         -5.17890        2.89806        0.66966
C         -3.94386        0.65471        0.52103
H         -2.68400        4.50438       -1.20029
H         -4.07686        3.58811       -1.76959
H         -4.32094        5.12845       -0.95561
H         -5.95103        3.48537        0.15159
H         -5.40124        2.99945        1.74210
H         -3.72683       -0.05691       -0.28766
C         -5.27029        1.39917        0.26604
C         -3.87115       -0.03516        1.86569
H         -3.45244        4.15425        1.17184
H         -6.08350        0.89906        0.81212
H         -5.53850        1.32645       -0.79834
H         -4.05916        0.67453        2.67353
H         -4.60993       -0.83599        1.94744
H         -2.88346       -0.46935        2.03292
C         -1.15655       -3.70741        0.80504
C         -0.90132       -2.91009        1.95004
C         -0.47996       -1.60490        1.76071
C         -0.36427       -1.07483        0.50280
C         -0.68912       -1.81535       -0.60175
C         -1.13943       -3.11808       -0.48491
O         -1.39393       -5.10024        0.94978
C         -1.04357       -3.45308        3.38042
H         -0.23130       -0.97994        2.60011
H         -0.57569       -1.35557       -1.56766
C         -1.59276       -3.86070       -1.75146
C          4.63717        0.64605       -0.54555
C          3.81926        1.66395       -1.10033
C          2.45982        1.63307       -0.83490
C          1.92508        0.68115       -0.00791
C          2.72525       -0.24335        0.61124
C          4.09313       -0.26409        0.39649
O          5.98914        0.51459       -0.96069
C          4.37507        2.76293       -2.01942
H          1.79133        2.34158       -1.29270
H          2.25866       -0.96733        1.25713
C          4.94976       -1.28994        1.15520
C          0.27776       -4.11096        3.80628
C         -1.36596       -2.31417        4.37476
C         -2.19717       -4.46825        3.47111
C         -2.68728       -4.89391       -1.42896
C         -2.19964       -2.86861       -2.77138
C         -0.38244       -4.55118       -2.39755
C         -0.22297       -5.90076        0.84773
H          0.53528       -4.93884        3.15037
H          1.09563       -3.39163        3.76902
H          0.21233       -4.49584        4.82366
H         -1.57957       -2.71569        5.36509
H         -0.52999       -1.62481        4.48405
H         -2.23864       -1.74876        4.04994
H         -2.00288       -5.34471        2.85770
H         -2.34018       -4.80858        4.49637
H         -3.12968       -4.02055        3.12889
H         -3.05262       -5.37408       -2.33639
H         -2.31548       -5.67479       -0.77060
H         -3.53211       -4.41534       -0.93470
H         -2.64221       -3.40078       -3.61294
H         -2.98057       -2.26580       -2.30850
H         -1.44690       -2.19627       -3.17991
H          0.38154       -3.82027       -2.66162
H          0.06955       -5.27128       -1.71955
H         -0.67282       -5.07903       -3.30554
H         -0.31400       -6.57901       -0.00038
H          0.65840       -5.27147        0.71733
H         -0.11181       -6.49983        1.75146
C          6.17070       -0.34616       -2.07824
C          3.53146        4.05270       -1.90157
C          5.81787        3.13551       -1.63277
C          4.32347        2.27701       -3.47601
C          4.32874       -1.60358        2.53607
C          5.01961       -2.59288        0.34422
C          6.36677       -0.74718        1.41443
H          2.53177        3.91963       -2.31232
H          3.43791        4.36102       -0.86061
H          3.99615        4.87027       -2.45226
H          5.86863        3.43909       -0.58767
H          6.49522        2.29633       -1.76917
H          6.18704        3.95892       -2.24366
H          4.69682        3.04159       -4.15672
H          4.92397        1.38130       -3.61452
H          3.30048        2.03697       -3.76504
H          4.99719       -2.22870        3.12771
H          4.14515       -0.68684        3.09587
H          3.38743       -2.14324        2.44265
H          5.46920       -2.42680       -0.63171
H          5.61209       -3.34523        0.86421
H          4.02160       -3.00041        0.18390
H          6.95299       -1.44898        2.00716
H          6.32245        0.19828        1.95399
H          6.90255       -0.57493        0.48442
H          6.83258       -1.16752       -1.80426
H          5.21163       -0.74627       -2.40969
H          6.63551        0.20685       -2.89430
