111
-148.55488800
P         -2.54760        2.07602        0.87427
P          0.14157        0.40247        0.48730
C         -1.45003        1.77463        2.28711
C         -0.26941        1.08604        2.10508
C         -3.34180        3.74542        0.94923
C         -2.73545        4.68778       -0.06749
C         -1.79787        2.22122        3.54584
H         -2.73170        2.74005        3.68802
C         -0.95459        1.98602        4.61821
H         -1.22572        2.33501        5.60124
C          0.23162        1.30273        4.43108
H          0.88708        1.11804        5.26620
C          0.57306        0.84703        3.17036
H          1.48780        0.29808        3.00878
Pd        -1.29481        1.47989       -0.96139
Cl        -2.96237        2.20824       -2.27566
Cl         0.01295        0.85709       -2.68237
C         -4.83172        3.42669        0.72228
C         -4.04761        0.99407        0.86354
H         -2.86344        4.30035       -1.07931
H         -3.20643        5.67287       -0.02981
H         -1.66349        4.81674        0.10050
H         -5.05550        3.53479       -0.34800
H         -5.46524        4.16786        1.23291
H         -4.14354        0.61796       -0.16393
C         -5.18564        1.98233        1.17945
C         -3.91071       -0.15046        1.84406
H         -3.18234        4.12248        1.96736
H         -5.36958        1.97538        2.26267
H         -6.12585        1.64346        0.71829
H         -3.06114       -0.78772        1.58980
H         -3.74830        0.22376        2.85656
H         -4.80786       -0.77365        1.85938
C         -1.20859       -3.93528        0.15637
C         -1.10420       -3.33381        1.43719
C         -0.67274       -2.01997        1.51297
C         -0.42448       -1.29329        0.37856
C         -0.62787       -1.83780       -0.86127
C         -1.05563       -3.14448       -1.01066
O         -1.43097       -5.33359        0.04413
C         -1.42285       -4.09458        2.73381
H         -0.51834       -1.54483        2.46544
H         -0.43857       -1.21648       -1.71917
C         -1.31977       -3.68190       -2.42542
C          4.52132        0.77951       -0.69898
C          3.85749       -0.46975       -0.82118
C          2.52314       -0.53754       -0.45934
C          1.87493        0.54468        0.07542
C          2.54209        1.71934        0.30419
C          3.88030        1.85653       -0.02958
O          5.78652        0.97267       -1.31071
C          4.52701       -1.75752       -1.33028
H          1.96632       -1.44657       -0.60795
H          1.99952        2.53933        0.74395
C          4.58843        3.16556        0.35949
C         -1.90841       -3.12411        3.83476
C         -2.55070       -5.11833        2.51018
C         -0.15452       -4.80362        3.23187
C         -1.80220       -2.54543       -3.35682
C         -0.01880       -4.26526       -2.99740
C         -2.42548       -4.75268       -2.41562
C         -0.23868       -6.10665       -0.01330
H         -2.74289       -2.52033        3.47985
H         -2.24521       -3.67417        4.71317
H         -1.11454       -2.45472        4.16267
H         -2.82146       -5.61324        3.44250
H         -3.44020       -4.62872        2.11503
H         -2.25244       -5.88894        1.80359
H         -0.34670       -5.34143        4.15993
H          0.21078       -5.51895        2.49908
H          0.64177       -4.08312        3.41745
H         -2.11771       -2.94278       -4.32113
H         -2.64909       -2.01787       -2.91879
H         -1.01327       -1.82113       -3.55348
H          0.75736       -3.50186       -3.04264
H          0.35413       -5.07902       -2.38004
H         -0.17302       -4.64968       -4.00526
H         -3.33867       -4.35642       -1.97283
H         -2.65603       -5.08731       -3.42671
H         -2.12807       -5.62565       -1.84020
H          0.63759       -5.46263        0.07183
H         -0.23627       -6.83372        0.79865
H         -0.19935       -6.65081       -0.95671
C          5.68553        1.43199       -2.64836
C          6.06228       -1.66037       -1.32072
C          4.14311       -2.93756       -0.40882
C          4.03668       -2.05762       -2.75645
C          6.12091        3.04530        0.29085
C          4.11885        4.29686       -0.56993
C          4.23112        3.52900        1.81806
H          6.41447       -0.91225       -2.02690
H          6.42343       -1.38187       -0.33134
H          6.51792       -2.61175       -1.59427
H          4.67392       -3.84431       -0.69787
H          4.39767       -2.71508        0.62703
H          3.07804       -3.15924       -0.45453
H          4.31340       -1.26139       -3.44443
H          4.46612       -2.98734       -3.12876
H          2.95184       -2.15441       -2.78167
H          6.45920        2.88875       -0.73062
H          6.60300        3.94935        0.66215
H          6.46752        2.20407        0.89005
H          3.03879        4.42706       -0.50973
H          4.58683        5.24296       -0.29914
H          4.36931        4.08401       -1.60727
H          4.47990        2.70851        2.49054
H          3.17128        3.74953        1.93331
H          4.78248        4.41033        2.14480
H          6.68597        1.54367       -3.06689
H          5.12189        0.71862       -3.24702
H          5.17419        2.39257       -2.67639
