105
-153.06560266
Cl        -0.01551        1.85703        3.12596
Pd        -0.52374        1.27786        1.01083
P         -1.11085        0.50707       -1.13084
N         -0.73371       -1.00473       -1.95043
C          0.19863       -1.98978       -1.62561
C          0.35314       -2.48727       -0.30636
C          1.31007       -3.49441       -0.05742
C          1.43656       -4.05517        1.34013
C          2.67637       -4.93391        1.57381
C          2.91081       -5.88393        0.39668
C          3.10640       -5.09036       -0.90278
C          2.07496       -4.00988       -1.10815
C          1.87893       -3.52869       -2.39622
C          0.95786       -2.54802       -2.65299
H          0.82448       -2.17914       -3.65503
H          2.47032       -3.93329       -3.20011
H          4.10110       -4.62934       -0.90850
H          3.77032       -6.54171        0.58925
H          3.55754       -4.29242        1.70091
H          1.44338       -3.22336        2.05310
C         -0.63722       -2.14488        0.74403
C         -0.21309       -1.54054        1.95921
C         -1.13676       -1.42163        3.00220
C         -2.43031       -1.84895        2.85235
C         -2.86885       -2.42369        1.66565
C         -4.30061       -2.89774        1.59351
C         -4.77050       -3.27931        0.18055
C         -3.68753       -4.07016       -0.55782
C         -2.39870       -3.24381       -0.67770
C         -1.97114       -2.57552        0.60667
H         -1.57981       -3.87779       -1.04004
H         -4.04295       -4.38821       -1.54819
H         -5.00272       -2.37016       -0.38759
H         -4.95123       -2.12025        2.01327
H         -3.12765       -1.74017        3.66577
H         -0.82416       -0.95619        3.92044
N          1.07254       -1.00272        2.11993
P          1.57843        0.20813        0.94307
C          2.63235       -0.36684       -0.37641
C          3.64736       -1.25511       -0.11743
C          4.50139       -1.63039       -1.13897
C          4.34879       -1.10594       -2.41610
C          3.32326       -0.19885       -2.64964
C          2.47301        0.17710       -1.62605
H          1.67733        0.88259       -1.79374
H          3.19071        0.20730       -3.63773
C          5.23955       -1.54537       -3.52503
H          5.29167       -2.33656       -0.95012
H          3.76313       -1.65090        0.87904
C          2.46846        1.57338        1.69962
C          3.21822        1.37288        2.83329
C          3.90228        2.43402        3.39831
C          3.84731        3.69713        2.82396
C          3.08611        3.87698        1.67682
C          2.40352        2.81512        1.11205
H          1.81357        2.95087        0.21861
H          3.02727        4.85498        1.23056
C          4.55591        4.84700        3.45093
H          4.48177        2.28736        4.29372
H          3.26888        0.38935        3.27147
H          1.23020       -0.55459        3.01322
H         -1.01039       -0.90137       -2.91855
C         -0.56962        1.88717       -2.15200
C         -0.76917        3.17600       -1.71793
C         -0.32854        4.24100       -2.47972
C          0.30826        4.02372       -3.69359
C          0.49917        2.71691       -4.12084
C          0.05541        1.65455       -3.35506
H          0.21491        0.64209       -3.68592
H          1.00264        2.53627       -5.05525
C          0.81294        5.16832       -4.50153
H         -0.47643        5.24994       -2.13425
H         -1.27841        3.34281       -0.78341
C         -2.90611        0.56229       -1.09508
C         -3.57151        0.93383       -2.23919
C         -4.95450        0.97244       -2.24998
C         -5.67918        0.63570       -1.11483
C         -4.98848        0.27150        0.03220
C         -3.60699        0.22228        0.03566
H         -3.06794       -0.06145        0.92476
H         -5.54005        0.03224        0.92511
C         -7.16647        0.70456       -1.11180
H         -5.47941        1.27038       -3.14146
H         -3.00596        1.19640       -3.11947
Cl        -2.34280        2.60316        1.04429
H          3.09211       -5.76672       -1.76708
H          2.58471       -5.49585        2.51403
H          2.04601       -6.55093        0.28990
H          0.52889       -4.62730        1.56596
H         -3.47588       -4.99626       -0.00877
H         -2.53161       -2.46868       -1.44122
H         -4.41172       -3.76025        2.26154
H         -5.71014       -3.84826        0.22040
H          6.23971       -1.77885       -3.15728
H          4.84191       -2.43834       -4.00933
H          5.33879       -0.76713       -4.28301
H          3.91101        5.35180        4.17145
H          5.45407        4.51797        3.97542
H          4.86009        5.57851        2.70098
H          0.19430        6.05518       -4.35720
H          1.83541        5.42129       -4.21773
H          0.80781        4.93143       -5.56639
H         -7.59347       -0.05608       -0.45657
H         -7.50762        1.68002       -0.76260
H         -7.57106        0.54440       -2.11215
