111
-148.55329048
P         -2.18726        2.11209        1.46367
P          0.17258        0.19886        0.60075
C         -1.07832        1.43525        2.72437
C         -0.05615        0.59377        2.34400
C         -2.37975        3.94259        1.65601
C         -1.91307        4.66264        0.40935
C         -1.24254        1.76357        4.05486
H         -2.02919        2.44160        4.34271
C         -0.39059        1.22947        5.00604
H         -0.51950        1.48267        6.04571
C          0.62483        0.37392        4.62399
H          1.28797       -0.04262        5.36423
C          0.79421        0.05725        3.28794
H          1.58698       -0.60266        2.97404
Pd        -1.41171        1.40774       -0.59207
Cl        -3.24021        2.25068       -1.57440
Cl        -0.43992        0.66294       -2.47410
C         -3.88423        4.11601        1.95549
C         -3.95238        1.57827        1.62505
H         -2.01288        5.74599        0.51052
H         -0.86657        4.43850        0.18805
H         -2.50516        4.35654       -0.45495
H         -4.24332        5.04864        1.49679
H         -4.03897        4.24150        3.03713
H         -4.14941        0.89270        0.78977
C         -4.72005        2.90459        1.45389
C         -4.21210        0.89706        2.95267
H         -1.76660        4.23484        2.51939
H         -5.68075        2.84683        1.98644
H         -4.97463        3.05270        0.39398
H         -4.07377        1.59750        3.77768
H         -5.23485        0.51778        3.01563
H         -3.52800        0.06134        3.11531
C         -1.29900       -3.99666       -0.38352
C         -2.12655       -3.10693        0.34954
C         -1.62440       -1.85461        0.66801
C         -0.39515       -1.45363        0.21121
C          0.34522       -2.25871       -0.61448
C         -0.09024       -3.52677       -0.95642
O         -1.65581       -5.36530       -0.51175
C         -3.54591       -3.48344        0.80256
H         -2.19103       -1.16847        1.27361
H          1.27419       -1.87800       -0.99947
C          0.75785       -4.37736       -1.91427
C          4.38992        0.92927       -0.96256
C          4.13800       -0.18655       -0.12410
C          2.84672       -0.38249        0.33707
C          1.84853        0.51257        0.04959
C          2.11546        1.65304       -0.66164
C          3.38395        1.91019       -1.15402
O          5.63297        1.04318       -1.64020
C          5.22935       -1.20048        0.25398
H          2.59793       -1.25667        0.91340
H          1.30573        2.33599       -0.85192
C          3.63022        3.21432       -1.92814
C         -4.46230       -2.24010        0.78865
C         -4.18441       -4.51404       -0.14681
C         -3.48997       -4.04416        2.23137
C         -0.12990       -5.31013       -2.75786
C          1.53283       -3.47588       -2.90267
C          1.76832       -5.20132       -1.10222
C         -1.18227       -6.18424        0.54981
H         -4.42335       -1.74046       -0.17904
H         -5.49807       -2.51821        0.98189
H         -4.17549       -1.52468        1.55559
H         -4.17995       -4.14487       -1.17183
H         -3.64516       -5.45763       -0.13033
H         -5.21654       -4.72037        0.13532
H         -3.07598       -3.30678        2.91880
H         -4.48496       -4.31383        2.58449
H         -2.86257       -4.93147        2.28081
H          0.46361       -5.86666       -3.48274
H         -0.64980       -6.03307       -2.13385
H         -0.88022       -4.73693       -3.30141
H          0.85749       -2.78587       -3.40791
H          2.30351       -2.89359       -2.40026
H          2.03107       -4.07521       -3.66428
H          1.26304       -5.88085       -0.41983
H          2.40520       -5.79472       -1.75775
H          2.40830       -4.54975       -0.50784
H         -2.02692       -6.61362        1.08815
H         -0.58606       -7.00028        0.14154
H         -0.57315       -5.59838        1.23934
C          5.65342        0.42116       -2.91906
C          5.26482       -2.32502       -0.79212
C          6.60766       -0.52148        0.35086
C          4.93777       -1.82550        1.63727
C          2.71698        4.34379       -1.39841
C          5.08234        3.69666       -1.75997
C          3.31385        2.98632       -3.41418
H          4.30458       -2.83731       -0.83863
H          5.47999       -1.93545       -1.78410
H          6.02853       -3.06263       -0.54698
H          7.36957       -1.22655        0.68229
H          6.92340       -0.12489       -0.61081
H          6.57896        0.30524        1.05986
H          5.77242       -2.44458        1.96549
H          4.78059       -1.05074        2.38729
H          4.05657       -2.46496        1.61350
H          2.97981        5.29870       -1.85300
H          1.66929        4.15839       -1.63048
H          2.81669        4.44859       -0.31836
H          5.32594        3.81933       -0.70519
H          5.78838        2.98748       -2.18443
H          5.23758        4.65355       -2.25771
H          2.27862        2.67085       -3.54266
H          3.94924        2.21272       -3.83850
H          3.46332        3.89905       -3.99027
H          6.43598       -0.33699       -2.94442
H          4.68945       -0.04294       -3.13177
H          5.87560        1.16453       -3.68442
