59
-75.80143089
Cl         1.51067        0.89058        2.36469
P          1.59228        0.10211       -0.76182
P         -1.57308       -0.17179       -0.80997
C          0.64581        0.42538       -2.31110
H          0.36473        1.48164       -2.31935
H          1.30420        0.25051       -3.16751
C         -0.57322       -0.45282       -2.34096
H         -0.28517       -1.50426       -2.38217
H         -1.20484       -0.25822       -3.21346
C          2.31456       -1.60730       -0.77587
H          2.01613       -2.06294       -1.72745
C          3.15866        1.08632       -0.65571
H          3.30181        1.30817        0.40908
C         -2.64138       -1.60282       -0.28553
H         -2.27991       -1.92534        0.69913
C         -2.88377        1.09658       -1.15950
H         -2.69265        1.48534       -2.16761
C          3.83769       -1.37245       -0.73450
H          4.19686       -1.56805        0.28497
H          4.35685       -2.10340       -1.37233
C          4.21679        0.07787       -1.13530
H          4.30172        0.14850       -2.22880
H          5.20929        0.34928       -0.74357
C         -4.03675       -0.95540       -0.17082
H         -4.81561       -1.70295       -0.38054
H         -4.21183       -0.63019        0.86549
C         -4.17992        0.26425       -1.11856
H         -5.02171        0.90046       -0.80781
H         -4.43182       -0.08832       -2.12976
C          1.79688       -2.43120        0.39849
H          0.70051       -2.38415        0.42353
H          2.11969       -1.95274        1.33309
C          3.13185        2.38264       -1.45792
H          4.15297        2.78387       -1.52151
H          2.84776        2.15559       -2.49343
C         -2.60749       -2.78472       -1.25834
H         -3.52450       -3.37658       -1.12991
H         -2.65965       -2.40016       -2.28504
C         -2.88387        2.24493       -0.15528
H         -3.80578        2.82999       -0.27948
H         -2.94389        1.82581        0.85724
C          2.25626       -3.88099        0.35912
H          1.86876       -4.45624        1.20306
H          3.34491       -3.95383        0.38528
H          1.92339       -4.37497       -0.55571
C          2.20250        3.42891       -0.86641
H          2.49228        3.68276        0.15501
H          1.17730        3.06441       -0.82512
H          2.19898        4.35333       -1.44846
C         -1.40133       -3.69514       -1.07965
H         -1.41836       -4.53737       -1.77521
H         -1.36554       -4.10710       -0.06921
H         -0.46428       -3.16477       -1.23994
C         -1.67794        3.15987       -0.28038
H         -0.75292        2.61341       -0.10487
H         -1.61178        3.59521       -1.27930
H         -1.71023        3.98246        0.43769
Cl        -1.73030        0.26584        2.34276
Pd        -0.03401        0.24832        0.87529
