171
-217.84715458
P         -1.55451        0.37937       -0.32967
P          1.61098       -0.46205       -0.30427
C         -0.82434        1.29525       -1.68853
C          0.88401       -1.43507       -1.63054
C         -0.06822        0.64028       -2.65342
C          0.54075        1.40301       -3.66846
C          0.34436        2.77398       -3.69454
C         -0.42642        3.40107       -2.73826
C         -1.00491        2.65574       -1.72942
C          1.06230       -2.79698       -1.59943
C          0.45285       -3.60117       -2.54185
C         -0.35115       -3.03129       -3.50580
C         -0.54547       -1.66096       -3.55559
C          0.09827       -0.83827       -2.61082
Cl         1.52812        0.21678        2.96593
Cl        -1.61590       -0.56853        2.83436
C         -1.43653       -1.09166       -4.60373
C          1.37108        0.75923       -4.72334
H         -0.57711        4.46741       -2.77797
H         -1.60180        3.13502       -0.96990
H          1.68055       -3.23577       -0.83345
H          0.59913       -4.66866       -2.51744
H          0.80476        3.35234       -4.47775
H         -0.84413       -3.65462       -4.23274
C         -3.96027       -3.21162       -1.65003
C         -2.95987       -3.38699       -0.70214
C         -2.23211       -2.26984       -0.31427
C         -2.48201       -1.04681       -0.88381
C         -3.45487       -0.89422       -1.84083
C         -4.22480       -1.98090       -2.23874
H         -4.56615       -4.05610       -1.92156
H         -1.47104       -2.34162        0.44284
H         -3.61222        0.08275       -2.26547
C         -4.24509        3.06329        2.15586
C         -4.82279        2.14338        1.28901
C         -3.97511        1.33720        0.54303
C         -2.61251        1.45933        0.65075
C         -2.05874        2.37450        1.51191
C         -2.86798        3.18193        2.30135
H         -4.87892        3.70604        2.73674
H         -4.38528        0.59849       -0.12235
H         -0.98716        2.44030        1.57902
C          4.51652       -2.87413        2.20857
C          3.16883       -3.21395        2.23552
C          2.29999       -2.48467        1.43546
C          2.76297       -1.44854        0.66344
C          4.09500       -1.11772        0.65908
C          5.00357       -1.83153        1.42963
H          5.21021       -3.42477        2.81556
H          1.24764       -2.71389        1.42962
H          4.41791       -0.28637        0.05841
C          3.72021        3.35890       -1.49020
C          2.77244        3.40011       -0.47484
C          2.11797        2.21912       -0.15307
C          2.40323        1.05696       -0.82549
C          3.34585        1.02995       -1.82358
C          4.02920        2.18891       -2.17390
H          4.25050        4.25583       -1.74914
H          1.39482        2.19949        0.64412
H          3.55235        0.09305       -2.31232
Pd         0.00143       -0.12594        1.34360
C         -2.50939       -5.80717       -1.20423
C         -2.71428       -4.76972       -0.08403
C         -3.93133       -5.16071        0.77183
C         -1.45848       -4.77141        0.80975
H         -1.67942       -5.51862       -1.84818
H         -2.28806       -6.79022       -0.78898
H         -3.39786       -5.90356       -1.82673
H         -3.78582       -6.13619        1.23555
H         -4.09434       -4.43016        1.56403
H         -4.83739       -5.20720        0.16846
H         -1.26464       -5.76861        1.20451
H         -0.58117       -4.46035        0.24347
H         -1.57762       -4.10022        1.65994
C         -6.71390       -1.98640       -2.44904
C         -5.39303       -1.83455       -3.22440
C         -5.30498       -2.92169       -4.31319
C         -5.38346       -0.45660       -3.91569
H         -6.79428       -1.22592       -1.67243
H         -7.57174       -1.88343       -3.11332
H         -6.77578       -2.96216       -1.96804
H         -4.35393       -2.86668       -4.84130
H         -5.39580       -3.92092       -3.88982
H         -6.10288       -2.80230       -5.04599
H         -6.19085       -0.38408       -4.64424
H         -5.52265        0.34809       -3.19448
H         -4.44501       -0.28832       -4.44292
C         -7.11777        2.94779        2.04334
C         -6.34101        1.97120        1.13998
C         -6.72592        0.53141        1.52973
C         -6.74062        2.23429       -0.32390
H         -6.88648        3.98280        1.79225
H         -8.19273        2.81205        1.92488
H         -6.87892        2.78431        3.09405
H         -7.80230        0.37989        1.45121
H         -6.23896       -0.19803        0.88346
H         -6.42796        0.31852        2.55612
H         -6.25409        1.53162       -0.99914
H         -7.81743        2.13392       -0.45882
H         -6.45413        3.24138       -0.62621
C         -0.77501        3.93854        3.53160
C         -2.27847        4.18919        3.29951
C         -2.99277        4.05832        4.65923
C         -2.46875        5.61094        2.74543
H         -0.38258        4.60927        4.29570
H         -0.59564        2.91519        3.86132
H         -0.20310        4.11306        2.62270
H         -2.92066        3.03716        5.03312
H         -2.54387        4.72047        5.39943
H         -4.04798        4.31704        4.58614
H         -3.52519        5.83565        2.60099
H         -2.05553        6.35481        3.42637
H         -1.96963        5.71895        1.78253
C          2.11596       -5.48296        2.19101
C          2.61322       -4.35000        3.10538
C          1.44345       -3.81710        3.95709
C          3.68495       -4.91573        4.05675
H          1.34309       -5.12665        1.51194
H          2.93284       -5.87744        1.58698
H          1.69894       -6.30327        2.77492
H          1.76595       -2.97423        4.56790
H          0.61587       -3.47910        3.33511
H          1.06087       -4.59076        4.62237
H          4.08166       -4.13533        4.70594
H          3.26468       -5.69462        4.69291
H          4.51162       -5.35779        3.50112
C          7.31943       -2.71158        1.02923
C          6.49813       -1.48148        1.45719
C          6.89216       -1.06236        2.88504
C          6.82682       -0.31964        0.49793
H          8.38519       -2.48384        1.01731
H          7.16595       -3.54809        1.70987
H          7.03246       -3.03639        0.02924
H          6.30284       -0.20499        3.20974
H          6.72419       -1.87125        3.59513
H          7.94556       -0.78729        2.93480
H          6.28973        0.58619        0.77889
H          7.89201       -0.08983        0.51868
H          6.56388       -0.57347       -0.52885
C          3.32906        5.86164       -0.12898
C          2.45289        4.67557        0.31714
C          2.71053        4.41705        1.81410
C          0.97683        5.05133        0.09775
H          3.09368        6.75459        0.45003
H          4.38710        5.64366        0.01538
H          3.16424        6.09800       -1.18006
H          3.75298        4.14814        1.98307
H          2.48975        5.30393        2.40773
H          2.09432        3.60175        2.19009
H          0.70260        5.92542        0.68807
H          0.79310        5.28239       -0.95071
H          0.31516        4.23366        0.37801
C          5.30355        0.81847       -3.90012
C          5.14014        2.19850       -3.23366
C          6.47346        2.57186       -2.55937
C          4.80512        3.23399       -4.32346
H          5.58112        0.05979       -3.16858
H          4.38201        0.50506       -4.38884
H          6.08629        0.84550       -4.65808
H          6.42512        3.56273       -2.10919
H          6.71966        1.85944       -1.77242
H          7.28960        2.57244       -3.28166
H          3.84505        3.01220       -4.78732
H          4.75093        4.24091       -3.91165
H          5.56456        3.23609       -5.10518
H         -2.36126       -1.66459       -4.67529
H          1.77855       -0.19335       -4.38181
H         -0.95345       -1.11460       -5.58150
H         -1.70664       -0.05830       -4.38251
H          2.21029        1.39618       -5.00305
H          0.78259        0.57295       -5.62254
