105
-153.06479518
Cl        -0.00031        2.00980        3.05757
Pd        -0.45926        1.33099        0.95626
P         -1.08904        0.50436       -1.15652
N         -0.65723       -0.99662       -1.97166
C          0.24263       -1.99876       -1.61191
C          0.35814       -2.48079       -0.28343
C          1.29734       -3.49527        0.00218
C          1.38113       -4.04224        1.40836
C          2.61040       -4.92287        1.68603
C          2.87024       -5.89001        0.52834
C          3.10266       -5.11511       -0.77634
C          2.08271       -4.03222       -1.02247
C          1.92088       -3.56876       -2.32179
C          1.01725       -2.58166       -2.61363
H          0.91320       -2.22363       -3.62306
H          2.52772       -3.98967       -3.10559
H          4.09949       -4.65867       -0.76263
H          3.72145       -6.54883        0.75175
H          3.49087       -4.28321        1.82674
H          1.37065       -3.20386        2.11333
C         -0.65671       -2.11552        0.73521
C         -0.26053       -1.50396        1.95541
C         -1.21205       -1.36296        2.96985
C         -2.50327       -1.78627        2.79179
C         -2.91272       -2.37467        1.60154
C         -4.34134       -2.85255        1.49984
C         -4.77959       -3.23212        0.07642
C         -3.68493       -4.03327       -0.63278
C         -2.38614       -3.21851       -0.72192
C         -1.98900       -2.54016        0.56735
H         -1.56267       -3.86304       -1.05398
H         -4.01807       -4.35012       -1.63125
H         -4.98913       -2.32178       -0.49847
H         -5.00333       -2.07863        1.90803
H         -3.22097       -1.66502        3.58551
H         -0.92061       -0.89064        3.89153
N          1.03191       -0.99646        2.15804
P          1.61359        0.22259        1.02671
C          2.61056       -0.32660       -0.34512
C          2.40986        0.25672       -1.57134
C          3.21721       -0.09633       -2.63698
C          4.23228       -1.02979       -2.47263
C          4.43872       -1.58082       -1.21434
C          3.62840       -1.22803       -0.15006
H          3.78216       -1.64963        0.83063
H          5.23668       -2.28960       -1.07374
C          5.10596       -1.40800       -3.61706
H          3.06031        0.34963       -3.60408
H          1.61674        0.97572       -1.68841
C          2.55484        1.51724        1.83944
C          3.25132        1.24755        2.99280
C          3.97780        2.25262        3.60551
C          4.01836        3.52887        3.05996
C          3.30888        3.77933        1.89308
C          2.58386        2.77319        1.28062
H          2.03465        2.96360        0.37150
H          3.32393        4.76869        1.46877
C          4.77322        4.61943        3.73696
H          4.51663        2.05150        4.51564
H          3.22920        0.25324        3.40847
H          1.16701       -0.55703        3.05938
H         -0.92833       -0.91389       -2.94351
C         -0.63019        1.88388       -2.21987
C          0.02571        1.65063       -3.40639
C          0.39354        2.71063       -4.21453
C          0.09565        4.01538       -3.84657
C         -0.56650        4.23350       -2.64651
C         -0.92973        3.17073       -1.84195
H         -1.44935        3.33781       -0.91357
H         -0.79409        5.24163       -2.34484
C          0.51554        5.16025       -4.70130
H          0.91889        2.53005       -5.13683
H          0.26624        0.64075       -3.69276
C         -2.88495        0.49653       -1.09824
C         -3.56565        0.70787       -2.27390
C         -4.94937        0.70147       -2.28058
C         -5.66000        0.48250       -1.10849
C         -4.95481        0.28100        0.06933
C         -3.57251        0.27255        0.06925
H         -3.02342        0.10588        0.98178
H         -5.49590        0.13416        0.98825
C         -7.14873        0.50245       -1.10427
H         -5.48576        0.87269       -3.19819
H         -3.01122        0.88171       -3.18298
Cl        -2.29752        2.63792        0.99208
H          3.10701       -5.80302       -1.63158
H          2.49216       -5.47130        2.63127
H          2.00531       -6.55462        0.40856
H          0.46521       -4.60903        1.61341
H         -3.49533       -4.96019       -0.07709
H         -2.48984       -2.45021       -1.49676
H         -4.46333       -3.71722        2.16316
H         -5.72496       -3.79268        0.09343
H          5.97470       -0.75091       -3.67539
H          5.46452       -2.43336       -3.51559
H          4.56668       -1.33904       -4.56289
H          5.63382        4.22520        4.27919
H          5.14296        5.34932        3.01542
H          4.13695        5.14424        4.45082
H          0.53678        4.87815       -5.75489
H         -0.17145        6.00137       -4.59809
H          1.51304        5.50439       -4.42470
H         -7.52147        1.50140       -0.87404
H         -7.55019        0.20835       -2.07505
H         -7.54843       -0.18642       -0.35865
