111
-148.54819437
P         -2.64440        1.97658        0.55899
P          0.14320        0.45140        0.46624
C         -1.74524        1.61440        2.09873
C         -0.50968        1.00684        2.04712
C         -3.73818        3.45523        0.82620
C         -3.56186        4.51374       -0.23878
C         -2.29812        1.93006        3.32458
H         -3.27688        2.37769        3.37068
C         -1.60487        1.65065        4.48977
H         -2.03817        1.89857        5.44501
C         -0.36158        1.05167        4.43111
H          0.17696        0.83112        5.33805
C          0.18525        0.72296        3.20420
H          1.14506        0.23474        3.13962
Pd        -1.07903        1.60001       -1.12909
Cl        -2.28886        2.95560       -2.43062
Cl         0.49232        1.07060       -2.64393
C         -5.15154        2.83727        0.85347
C         -3.92423        0.69215        0.17401
H         -3.86826        4.13044       -1.21285
H         -4.16744        5.39894       -0.03098
H         -2.51860        4.82680       -0.31983
H         -5.87913        3.56770        0.47050
H         -5.45383        2.63629        1.89171
H         -3.64059        0.23612       -0.78467
C         -5.21858        1.51832        0.03461
C         -3.98286       -0.35901        1.26123
H         -3.46820        3.87036        1.80618
H         -6.07897        0.90976        0.34909
H         -5.39576        1.75763       -1.02430
H         -3.01984       -0.85872        1.38129
H         -4.23937        0.09345        2.22092
H         -4.73323       -1.12246        1.04239
C         -1.39761       -3.76845       -0.28215
C         -0.97345       -2.96694       -1.37261
C         -0.51205       -1.69073       -1.10424
C         -0.40623       -1.23003        0.18068
C         -0.70393       -2.04196        1.24319
C         -1.16555       -3.33252        1.04777
O         -2.09083       -4.98463       -0.52138
C         -1.04923       -3.43953       -2.83218
H         -0.23575       -1.02335       -1.90130
H         -0.58909       -1.64437        2.23614
C         -1.44110       -4.21824        2.27246
C          4.68010        0.59335        0.14664
C          4.04486       -0.52211        0.75023
C          2.66154       -0.53097        0.81620
C          1.92604        0.54146        0.38360
C          2.53949        1.66785       -0.09701
C          3.91916        1.73962       -0.19917
O          6.06908        0.54654       -0.14645
C          4.82443       -1.72888        1.29568
H          2.13351       -1.39029        1.19276
H          1.91879        2.48676       -0.41757
C          4.56092        3.03159       -0.72837
C          0.06540       -2.77992       -3.67639
C         -0.84870       -4.96225       -2.93472
C         -2.41094       -3.04193       -3.42194
C         -0.47709       -3.86294        3.42767
C         -2.88370       -3.99184        2.74991
C         -1.21734       -5.70543        1.94391
C         -3.50295       -4.83649       -0.60267
H          1.04126       -2.93110       -3.21575
H          0.09748       -3.20862       -4.67770
H         -0.09601       -1.70937       -3.79310
H         -1.64565       -5.50235       -2.42975
H         -0.83822       -5.28709       -3.97483
H          0.09563       -5.25629       -2.47779
H         -2.49188       -3.35381       -4.46285
H         -3.22839       -3.49891       -2.86924
H         -2.54704       -1.96135       -3.38152
H         -0.58081       -4.57099        4.24956
H          0.55877       -3.89099        3.09037
H         -0.67924       -2.87244        3.83262
H         -3.03884       -2.94971        3.02811
H         -3.60038       -4.23608        1.96936
H         -3.10859       -4.60936        3.61910
H         -1.91851       -6.05530        1.19042
H         -0.20950       -5.86649        1.56270
H         -1.34852       -6.32659        2.82959
H         -3.97971       -5.44769        0.16345
H         -3.78502       -3.79214       -0.46234
H         -3.85112       -5.17879       -1.57705
C          6.37182        0.01288       -1.42956
C          4.06187       -2.38426        2.47021
C          4.99308       -2.77151        0.18008
C          6.20061       -1.30208        1.83772
C          5.95491        3.25392       -0.11412
C          4.66037        2.95502       -2.25962
C          3.70332        4.26128       -0.35217
H          3.81166       -1.64494        3.23068
H          3.14055       -2.86051        2.13808
H          4.66837       -3.15721        2.94172
H          4.02196       -3.10276       -0.18725
H          5.54287       -2.36138       -0.66354
H          5.53383       -3.64591        0.54127
H          6.72593       -2.14686        2.28256
H          6.83161       -0.90158        1.04830
H          6.09036       -0.53156        2.60004
H          6.37981        4.20308       -0.43974
H          5.89756        3.26325        0.97380
H          6.64717        2.46771       -0.40439
H          5.09958        3.86435       -2.66893
H          5.27414        2.11420       -2.57341
H          3.67306        2.82686       -2.70289
H          4.21752        5.18585       -0.61362
H          3.50293        4.28110        0.71875
H          2.75114        4.26602       -0.88047
H          7.00959       -0.86408       -1.32013
H          5.45531       -0.26602       -1.95109
H          6.91245        0.75515       -2.01655
