64
-97.20787113
Cl        -1.65229       -1.50092       -2.46374
Cl         1.58162       -1.56565       -2.84565
P          1.95752       -0.65481        0.21793
C          2.20042       -2.31458        1.00107
C          3.72604       -0.22319       -0.14758
P         -1.29032       -0.11396        0.41660
C          1.29288        0.58118        1.38955
C         -0.12891        0.85319        1.45405
C         -0.33402        1.99110        2.33891
C          0.96638        2.43358        2.81025
C          1.97206        1.57781        2.20394
H         -1.29232        2.45163        2.58341
H          1.15564        3.27000        3.48687
Pd         0.14931       -1.03219       -1.21375
H          3.05220        1.65222        2.34815
C         -4.86780        2.49182       -0.66972
C         -4.48902        2.33982        0.64945
C         -3.41156        1.53269        0.96886
C         -2.71573        0.88936       -0.02963
C         -3.10967        1.01884       -1.34207
C         -4.18223        1.82732       -1.66695
H         -5.70616        3.12127       -0.92019
H         -5.03188        2.84739        1.42988
H         -3.11973        1.38820        1.99654
H         -2.59337        0.46195       -2.10511
H         -4.48725        1.93060       -2.69542
C         -2.76207       -3.81347        2.60208
C         -2.34568       -2.70971        3.32121
C         -1.90250       -1.58070        2.65560
C         -1.87735       -1.56767        1.28018
C         -2.29537       -2.66177        0.56006
C         -2.73923       -3.79165        1.22110
H         -3.10732       -4.69344        3.11995
H         -2.36490       -2.72710        4.39854
H         -1.57076       -0.71102        3.20032
H         -2.26886       -2.62086       -0.51689
H         -3.06586       -4.65139        0.65947
C          4.03838       -0.26896       -1.62677
H          3.89138        0.78819        0.24624
C          4.51034       -1.26935        0.66875
H          4.74317       -0.86873        1.66629
C          3.70592       -2.58817        0.81882
H          5.48205       -1.45939        0.18999
C          1.75963       -2.27954        2.44824
H          1.59472       -3.03160        0.43001
H          4.07925       -3.17605        1.66973
H          3.86768       -3.21628       -0.06930
H          2.33368       -1.53688        3.00599
H          0.70497       -2.01102        2.53545
H          1.90293       -3.24676        2.93576
H          3.41715        0.42698       -2.19287
H          5.08397       -0.02202       -1.82352
H          3.85567       -1.26852       -2.02411
Fe         0.87692        2.45563        0.75964
C          1.49828        4.22711       -0.10760
C          0.06852        4.02248       -0.26762
C         -0.13085        2.78059       -0.99209
C          1.17326        2.20546       -1.25684
C          2.18029        3.09882       -0.71688
H          1.97556        5.08197        0.37653
H         -0.71959        4.69922        0.07106
H         -1.09199        2.35719       -1.28423
H          1.36178        1.29275       -1.82516
H          3.26198        2.96654       -0.78838
