45
-71.81799646
C          2.35821        0.98498        2.48918
P          1.53620        0.78255        0.87344
P         -1.06162        0.27894       -0.82610
C         -0.47647       -0.07439       -2.51852
Cl         1.44905       -2.12545        2.10703
H          3.06095        1.81232        2.45010
H          0.60415        0.02542       -2.56427
Cl        -1.13740       -2.81354        0.07357
C          0.48508        2.18318        0.43701
C         -0.64247        1.95701       -0.32129
C         -1.44940        3.00935       -0.70142
C         -1.11929        4.29830       -0.32122
C          0.01582        4.52694        0.43268
C          0.82242        3.46785        0.81098
H         -2.33118        2.81421       -1.29042
H         -1.74728        5.12316       -0.61512
H          0.27517        5.53112        0.72520
H          1.71567        3.63604        1.39016
Pd         0.15899       -1.06768        0.60690
H         -0.92330        0.62222       -3.22195
H          2.89721        0.07705        2.74416
H         -0.74804       -1.08837       -2.79816
C         -5.51026       -0.46245       -0.22672
C         -5.01520       -0.28755       -1.50392
C         -3.66339       -0.06478       -1.69573
C         -2.81776       -0.02048       -0.61038
C         -3.30738       -0.18766        0.66498
C         -4.65872       -0.41241        0.85906
H         -6.56297       -0.63867       -0.07710
H         -5.68032       -0.32534       -2.35100
H         -3.26611        0.07513       -2.68798
H         -2.63014       -0.14416        1.50360
H         -5.04413       -0.55011        1.85593
C          4.43515       -0.15441       -2.49637
C          3.72744        1.03199       -2.51258
C          2.85388        1.32755       -1.48168
C          2.70116        0.43765       -0.44382
C          3.39496       -0.75006       -0.42756
C          4.26953       -1.04814       -1.45624
H          5.11541       -0.38538       -3.29981
H          3.85348        1.72580       -3.32744
H          2.28751        2.24481       -1.48307
H          3.22312       -1.44604        0.37838
H          4.81412       -1.97796       -1.44833
H          1.61686        1.18239        3.25816
