111
-148.55621711
P         -2.64906        1.84334        0.66945
P          0.20363        0.49491        0.41856
C         -1.66662        1.53376        2.16149
C         -0.40016        1.00284        2.04203
C         -3.62666        3.40908        0.80330
C         -2.98542        4.53795        0.02621
C         -2.17663        1.82402        3.41084
H         -3.17450        2.22078        3.50072
C         -1.41032        1.58877        4.53937
H         -1.80763        1.81536        5.51530
C         -0.13878        1.06233        4.41686
H          0.45685        0.87677        5.29550
C          0.36562        0.76358        3.16421
H          1.34928        0.33583        3.05367
Pd        -1.17889        1.59124       -1.09152
Cl        -2.79949        2.38050       -2.42753
Cl         0.33672        1.25312       -2.71046
C         -5.01628        2.98180        0.29617
C         -4.01354        0.62378        0.38622
H         -2.91259        4.28856       -1.03304
H         -3.56695        5.45920        0.10757
H         -1.97372        4.74182        0.38487
H         -5.06948        3.17010       -0.78509
H         -5.79971        3.61114        0.74536
H         -3.91861        0.30148       -0.65949
C         -5.28477        1.47443        0.57225
C         -3.90738       -0.55885        1.32447
H         -3.67326        3.65750        1.87109
H         -5.64467        1.35067        1.60289
H         -6.09499        1.09658       -0.06965
H         -2.97162       -1.09990        1.17395
H         -3.93222       -0.23119        2.36535
H         -4.73047       -1.26182        1.17674
C         -1.39074       -3.70116       -0.34083
C         -1.04730       -2.86856       -1.43630
C         -0.55397       -1.60498       -1.16606
C         -0.35209       -1.18232        0.12061
C         -0.57384       -2.02354        1.17864
C         -1.05065       -3.30818        0.97946
O         -2.11490       -4.90264       -0.56165
C         -1.25704       -3.28742       -2.89888
H         -0.33570       -0.91475       -1.96193
H         -0.38909       -1.65389        2.17206
C         -1.22587       -4.23237        2.19388
C          4.74886        0.64516        0.17180
C          4.09903       -0.48551        0.73373
C          2.71629       -0.47368        0.80918
C          1.98568        0.56526        0.29308
C          2.60200        1.60048       -0.35918
C          3.98142        1.64738       -0.48031
O          6.14918        0.81009        0.32796
C          4.83551       -1.73437        1.24708
H          2.18894       -1.28876        1.27587
H          1.98815        2.37314       -0.78990
C          4.59038        2.76206       -1.34809
C         -2.66017       -2.85378       -3.35047
C         -0.21293       -2.60876       -3.81500
C         -1.08748       -4.80736       -3.07226
C         -1.05209       -5.70990        1.79827
C         -0.15521       -3.92546        3.26611
C         -2.61605       -4.00767        2.80792
C         -3.52701       -4.74033       -0.51182
H         -2.77775       -1.77422       -3.25757
H         -2.83677       -3.12441       -4.39107
H         -3.43170       -3.32351       -2.74495
H         -0.37095       -1.53330       -3.88016
H          0.79770       -2.78520       -3.44788
H         -0.27442       -3.00206       -4.82937
H         -1.84393       -5.35680       -2.51753
H         -1.17391       -5.09439       -4.11993
H         -0.11052       -5.12780       -2.71193
H         -1.10984       -6.35903        2.67164
H         -1.82336       -6.02761        1.10120
H         -0.08537       -5.86794        1.32128
H          0.84481       -3.95304        2.83386
H         -0.30557       -2.94671        3.71918
H         -0.19243       -4.65917        4.07101
H         -2.73168       -2.97387        3.13268
H         -3.40368       -4.21850        2.08826
H         -2.76913       -4.65168        3.67349
H         -3.94055       -5.36871        0.27677
H         -3.78393       -3.69806       -0.31820
H         -3.96439       -5.05147       -1.46039
C          6.48994        1.51540        1.50960
C          6.29824       -1.78696        0.77320
C          4.79218       -1.75647        2.78386
C          4.13853       -3.00180        0.70314
C          3.81228        2.85499       -2.67987
C          4.48489        4.10451       -0.60661
C          6.06134        2.48745       -1.70632
H          6.88060       -0.97493        1.20222
H          6.77295       -2.72324        1.06574
H          6.35398       -1.70114       -0.31142
H          5.28676       -0.88231        3.20328
H          3.76395       -1.76191        3.14455
H          5.28960       -2.64372        3.17477
H          3.12637       -3.10696        1.09019
H          4.08157       -2.97195       -0.38458
H          4.68801       -3.89912        0.98658
H          3.80288        1.89072       -3.18707
H          2.77927        3.16188       -2.52621
H          4.27087        3.58281       -3.34863
H          5.03486        4.07900        0.33229
H          4.88967        4.91588       -1.21098
H          3.44662        4.34250       -0.37759
H          6.16694        1.50784       -2.17118
H          6.69267        2.50605       -0.82108
H          6.44357        3.23636       -2.39956
H          7.57481        1.59766        1.57901
H          6.05384        2.51287        1.48820
H          6.11223        0.98557        2.38271
