111
-148.54927504
P         -2.57121        2.15281        0.61658
P          0.10129        0.45191        0.42647
C         -1.47270        2.01752        2.05762
C         -0.29365        1.31206        1.95579
C         -3.46251        3.77776        0.64675
C         -3.31871        4.52286       -0.66150
C         -1.81518        2.60702        3.25835
H         -2.74639        3.14236        3.34358
C         -0.96956        2.49507        4.34869
H         -1.23744        2.95581        5.28549
C          0.21506        1.79253        4.23920
H          0.87226        1.70378        5.08855
C          0.55248        1.19491        3.03821
H          1.46586        0.62932        2.93734
Pd        -1.33064        1.32513       -1.15900
Cl        -2.91335        2.09244       -2.54661
Cl        -0.03430        0.48360       -2.79105
C         -4.91329        3.36963        0.97772
C         -4.00597        0.98638        0.69645
H         -3.80373        5.50107       -0.62242
H         -2.26811        4.67463       -0.91968
H         -3.78042        3.96177       -1.47484
H         -5.60999        4.07990        0.50897
H         -5.08911        3.45448        2.06017
H         -3.90582        0.30012       -0.15587
C         -5.22330        1.91683        0.51934
C         -3.99875        0.21528        1.99831
H         -3.01920        4.36461        1.46233
H         -6.08088        1.50959        1.07446
H         -5.53195        1.92842       -0.53642
H         -3.07458       -0.35551        2.11283
H         -4.07276        0.89511        2.84918
H         -4.83717       -0.48292        2.05700
C         -1.10111       -3.93715        0.62697
C         -1.04595       -3.17654        1.82346
C         -0.66674       -1.84713        1.73960
C         -0.42146       -1.25901        0.52671
C         -0.57991       -1.96201       -0.63772
C         -0.95858       -3.29233       -0.62794
O         -1.25856       -5.34736        0.68819
C         -1.35241       -3.78438        3.20123
H         -0.54477       -1.25248        2.62740
H         -0.39216       -1.44758       -1.56394
C         -1.18176       -4.01138       -1.96724
C          4.48818        0.76733       -0.74835
C          3.68835        1.93777       -0.69250
C          2.36606        1.81308       -0.29694
C          1.82268        0.58258       -0.03680
C          2.56127       -0.56075       -0.19627
C          3.88748       -0.50744       -0.58983
O          5.89290        0.87397       -0.92944
C          4.23909        3.32878       -1.04346
H          1.73692        2.67987       -0.18729
H          2.08180       -1.50606       -0.01106
C          4.64782       -1.82130       -0.82951
C         -1.90620       -2.71018        4.16477
C         -2.42416       -4.88451        3.09450
C         -0.06056       -4.36019        3.80049
C         -1.70425       -3.02091       -3.03369
C          0.15002       -4.60056       -2.45595
C         -2.23824       -5.12275       -1.83255
C         -0.03099       -6.06385        0.73691
H         -2.22652       -3.16191        5.10335
H         -1.15506       -1.96130        4.41129
H         -2.76666       -2.20437        3.72834
H         -2.68993       -5.26970        4.07861
H         -3.32803       -4.49532        2.62695
H         -2.07400       -5.72271        2.49712
H         -0.24427       -4.78942        4.78512
H          0.35435       -5.14005        3.16649
H          0.69506       -3.58210        3.90662
H         -2.58052       -2.48540       -2.66934
H         -0.94763       -2.28867       -3.31113
H         -1.98799       -3.54704       -3.94474
H          0.55589       -5.30905       -1.73770
H          0.02269       -5.11863       -3.40607
H          0.88908       -3.81280       -2.59830
H         -3.17293       -4.71816       -1.44570
H         -2.44298       -5.58785       -2.79650
H         -1.90776       -5.90486       -1.15377
H          0.81321       -5.37311        0.74540
H         -0.00451       -6.68128        1.63468
H          0.04555       -6.72016       -0.12975
C          6.62704        0.97114        0.28440
C          4.81566        3.98282        0.22098
C          5.32243        3.23549       -2.13356
C          3.11708        4.23378       -1.60139
C          5.29068       -2.28543        0.48587
C          3.68359       -2.92365       -1.32568
C          5.72532       -1.64766       -1.91527
H          5.20332        4.97781        0.00378
H          4.04855        4.07920        0.98899
H          5.62687        3.38959        0.63620
H          6.18975        2.68069       -1.78419
H          4.93477        2.72831       -3.01645
H          5.66374        4.22600       -2.43325
H          3.52624        5.17253       -1.97407
H          2.59856        3.74397       -2.42528
H          2.38452        4.48614       -0.83624
H          4.53102       -2.44373        1.25106
H          5.83076       -3.22171        0.34738
H          5.99208       -1.54543        0.86409
H          3.11589       -2.57846       -2.18932
H          4.23461       -3.81590       -1.62203
H          2.98033       -3.22572       -0.55093
H          6.21800       -2.59468       -2.13405
H          6.49187       -0.94225       -1.60433
H          5.28252       -1.27409       -2.83797
H          7.20515        1.89507        0.28822
H          5.95082        0.96137        1.14016
H          7.32140        0.13458        0.36029
