115
-277.93706332
P         -1.49269        0.62974        0.21308
P          2.11310        0.13784       -0.03481
C         -2.48579        2.12374        0.08922
C         -3.77448        2.09682        0.58046
H         -4.22689        1.15408        0.84688
C         -4.41996        3.28696        0.85799
H         -5.37313        3.28535        1.36168
C         -3.78072        4.49757        0.63048
C         -2.54432        4.50543        0.00639
H         -2.05440        5.45395       -0.15057
C         -1.88880        3.31913       -0.24955
H         -0.88525        3.33258       -0.64232
C         -2.48365       -0.71883       -0.46359
C         -2.80702       -1.81051        0.31028
H         -2.49322       -1.85489        1.33964
C         -3.52980       -2.85089       -0.23492
H         -3.77965       -3.72103        0.35309
C         -3.94214       -2.79698       -1.55314
C         -3.62817       -1.69177       -2.31774
H         -3.96409       -1.65940       -3.34222
C         -2.89400       -0.65937       -1.77415
H         -2.62959        0.19362       -2.37663
C         -1.14496        0.35944        1.99718
C         -0.41746       -0.79618        2.19476
H         -0.09985       -1.36636        1.34406
C          0.07816       -1.15522        3.44532
C         -0.37659       -0.44162        4.54644
H         -0.04628       -0.72128        5.53287
C         -1.11177        0.71253        4.36811
H         -1.34947        1.32172        5.22384
C         -1.40176        1.19951        3.09263
C          1.94363        0.84921        1.64027
C          1.24358        2.04339        1.64582
H          0.83353        2.41924        0.72378
C          0.91413        2.68770        2.83874
C          1.51785        2.23098        4.00462
H          1.31261        2.73238        4.93567
C          2.23449        1.05129        4.00619
H          2.58608        0.64788        4.94057
C          2.35739        0.28036        2.85096
C         -1.64148        2.68857        2.98059
H         -2.26970        3.01494        3.81816
H         -2.26087        2.89553        2.11277
C         -0.32337        3.54418        2.92268
H         -0.34983        4.23910        2.07696
H         -0.25156        4.19063        3.80455
C          1.33204       -1.98556        3.52880
H          1.18558       -2.91000        2.96041
H          1.47001       -2.31379        4.56464
C          2.59983       -1.20085        3.02431
H          3.44109       -1.35091        3.70966
H          2.94176       -1.60564        2.07451
C          1.94342       -1.65550       -0.20020
C          3.02302       -2.46931        0.06874
C          0.70640       -2.21022       -0.44856
C          2.82753       -3.82365        0.25553
C          0.51129       -3.56169       -0.27139
C          1.55715       -4.36571        0.15059
C          3.63937        0.70291       -0.79718
C          4.26360       -0.03068       -1.77913
C          4.17703        1.89532       -0.37307
C          5.44072        0.42845       -2.33522
H          3.82444       -0.95503       -2.11822
C          5.35354        2.35295       -0.92830
H          3.68111        2.46118        0.39915
C          5.99138        1.62281       -1.91321
H          5.95443       -0.13514       -3.09806
H          5.79908        3.27663       -0.59565
Pd         0.28784        0.86301       -1.31899
Cl        -1.29685        1.80993       -2.60970
Cl         1.78026        0.97553       -2.99482
H         -0.47456       -3.98893       -0.35928
H         -0.13528       -1.58250       -0.68462
H          3.63158       -4.45881        0.59357
H          3.99998       -2.03595        0.21498
C         -5.73011        5.80521        1.59580
C         -4.19272        5.75110        1.36233
C         -3.37609        5.75670        2.69494
F         -6.32804        5.63078        0.40796
F         -6.09509        4.82495        2.43350
F         -6.05485        7.00341        2.10569
F         -3.84282        6.83089        0.65919
F         -3.61424        4.61896        3.36068
F         -2.07635        5.80380        2.37045
F         -3.71523        6.82343        3.43095
C         -4.03987       -5.27715       -1.89814
C         -4.74858       -3.91638       -2.15939
C         -6.19074       -3.87418       -1.57878
F         -4.63201       -6.23130       -2.63323
F         -2.75620       -5.13749       -2.26468
F         -4.11285       -5.57491       -0.59262
F         -4.83669       -3.75417       -3.48256
F         -6.73655       -2.70410       -1.94365
F         -6.90324       -4.89511       -2.07876
F         -6.13116       -3.94789       -0.24104
C          7.29404        3.59238       -2.78959
C          7.32093        2.06876       -2.46674
C          8.42889        1.70025       -1.43856
F          6.22107        3.82442       -3.56048
F          7.19362        4.29209       -1.65091
F          8.41583        3.92347       -3.44734
F          7.58595        1.41842       -3.60311
F          8.42132        0.36564       -1.30284
F          9.62011        2.11426       -1.89536
F          8.14625        2.27545       -0.26049
C          0.94336       -5.32688        2.31581
C          1.27600       -5.68085        0.83269
C          0.12233       -6.45471        0.13265
F          0.63224       -6.44067        2.99223
F          2.02937       -4.74387        2.84122
F         -0.07053       -4.45050        2.33872
F          2.36486       -6.45335        0.82043
F         -1.02821       -5.78381        0.28858
F          0.42622       -6.54408       -1.17110
F          0.02764       -7.68077        0.67107
