111
-148.55460906
P         -2.52713        2.11741        1.05185
P          0.07238        0.35964        0.53674
C         -1.46610        1.63696        2.44263
C         -0.31681        0.91378        2.20654
C         -3.20751        3.82444        1.27470
C         -2.51514        4.82290        0.37295
C         -1.80673        1.98287        3.73473
H         -2.71658        2.53063        3.91776
C         -0.98735        1.61046        4.78658
H         -1.25284        1.88037        5.79569
C          0.16809        0.89207        4.54551
H          0.80473        0.60061        5.36460
C          0.50253        0.53890        3.25045
H          1.39208       -0.03602        3.04458
Pd        -1.34111        1.55097       -0.84786
Cl        -2.92633        2.63306       -2.00836
Cl        -0.02128        0.99456       -2.57973
C         -4.70965        3.63176        0.99562
C         -4.09851        1.14592        0.95293
H         -2.91696        5.82963        0.50917
H         -1.44076        4.85619        0.56910
H         -2.64745        4.55594       -0.67618
H         -4.89957        3.83848       -0.06666
H         -5.30235        4.37365        1.55218
H         -4.20769        0.85142       -0.09950
C         -5.17147        2.18421        1.33074
C         -4.04805       -0.07245        1.84924
H         -3.04794        4.08608        2.32846
H         -5.37683        2.10512        2.40717
H         -6.12363        1.95009        0.83077
H         -4.98238       -0.63723        1.80976
H         -3.23520       -0.74174        1.55860
H         -3.87830        0.21697        2.88798
C         -1.11349       -3.99159       -0.08600
C         -1.17364       -3.43582        1.21817
C         -0.80329       -2.11193        1.38510
C         -0.46228       -1.33444        0.30980
C         -0.51328       -1.83641       -0.96309
C         -0.87085       -3.15121       -1.20231
O         -1.25465       -5.39299       -0.26850
C         -1.59188       -4.25664        2.44801
H         -0.76086       -1.67223        2.36563
H         -0.25953       -1.17486       -1.77288
C         -0.95180       -3.64669       -2.65413
C          4.43484        0.74324       -0.69277
C          3.91478       -0.52001       -0.31136
C          2.58232       -0.59393        0.05715
C          1.80221        0.53072        0.12345
C          2.32706        1.76824       -0.13901
C          3.65248        1.91374       -0.51592
O          5.72128        0.83061       -1.28831
C          4.75093       -1.80904       -0.33640
H          2.12532       -1.54317        0.27766
H          1.67549        2.62223       -0.06735
C          4.20268        3.32458       -0.77631
C         -0.34833       -4.91292        3.06655
C         -2.25231       -3.35076        3.51229
C         -2.62762       -5.33142        2.07085
C          0.43198       -4.14702       -3.09587
C         -1.99624       -4.76762       -2.80257
C         -1.38587       -2.49966       -3.59586
C         -0.02693       -6.10887       -0.21329
H         -0.61199       -5.49402        3.94988
H          0.13850       -5.57977        2.35897
H          0.37851       -4.15721        3.36371
H         -2.65112       -3.94676        4.33285
H         -1.54101       -2.64856        3.94445
H         -3.07668       -2.78384        3.08120
H         -2.97316       -5.86961        2.95314
H         -3.49329       -4.87758        1.58950
H         -2.20887       -6.06212        1.38335
H          1.16924       -3.34730       -3.02885
H          0.77465       -4.96580       -2.46756
H          0.40920       -4.49955       -4.12668
H         -2.09811       -5.07308       -3.84362
H         -1.71918       -5.64751       -2.22755
H         -2.97114       -4.43218       -2.45038
H         -1.57111       -2.87414       -4.60225
H         -2.30245       -2.03081       -3.23896
H         -0.61874       -1.73127       -3.67789
H          0.80261       -5.42810       -0.01759
H         -0.07642       -6.85813        0.57667
H          0.14075       -6.62278       -1.15961
C          5.71222        0.70241       -2.70476
C          4.61957       -2.47212       -1.71607
C          6.22970       -1.51848       -0.02298
C          4.25040       -2.80445        0.73578
C          3.48718        4.36303        0.11752
C          5.70363        3.40738       -0.44423
C          3.96252        3.69701       -2.24739
H          5.19285       -3.39775       -1.76089
H          3.57788       -2.70936       -1.93098
H          4.97827       -1.81593       -2.50532
H          6.80961       -2.44006        0.02040
H          6.67919       -0.88287       -0.78166
H          6.32585       -1.01156        0.93659
H          4.91928       -3.66162        0.80980
H          4.20606       -2.32910        1.71534
H          3.26101       -3.19221        0.49710
H          3.96067        5.34062        0.02940
H          2.44306        4.48795       -0.16539
H          3.52650        4.06534        1.16503
H          6.07694        4.42360       -0.56837
H          5.88599        3.10230        0.58563
H          6.29026        2.76090       -1.09196
H          2.89907        3.66547       -2.48346
H          4.46912        3.00621       -2.91689
H          4.32695        4.70147       -2.46096
H          4.69281        0.56298       -3.06701
H          6.13928        1.59784       -3.15601
H          6.32296       -0.15082       -2.99929
