111
-148.55645848
P         -2.64616        2.08470        0.47567
P          0.05343        0.43519        0.53691
C         -1.84380        1.73386        2.06225
C         -0.64660        1.05160        2.07996
C         -3.38773        3.77969        0.43771
C         -2.58027        4.71185       -0.43912
C         -2.42721        2.13181        3.24801
H         -3.37193        2.65019        3.22920
C         -1.80297        1.84894        4.45086
H         -2.25760        2.15878        5.37765
C         -0.60064        1.16787        4.46547
H         -0.11663        0.94512        5.40210
C         -0.02217        0.76412        3.27548
H          0.90772        0.21736        3.26885
Pd        -1.10269        1.53723       -1.14412
Cl        -2.50709        2.25817       -2.73324
Cl         0.57240        0.94117       -2.52577
C         -4.82341        3.51756       -0.05511
C         -4.15305        1.05760        0.16523
H         -2.54028        4.34108       -1.46451
H         -3.01772        5.71258       -0.46738
H         -1.55121        4.80060       -0.08251
H         -4.85139        3.65267       -1.14514
H         -5.51342        4.27130        0.35372
H         -4.07301        0.70830       -0.87301
C         -5.29788        2.07886        0.29807
C         -4.23396       -0.11292        1.12058
H         -3.39832        4.13761        1.47516
H         -5.67150        2.05906        1.33116
H         -6.15123        1.78109       -0.33012
H         -5.13905       -0.70201        0.95532
H         -3.37372       -0.77524        1.00473
H         -4.24576        0.23125        2.15637
C         -1.26516       -3.86176       -0.19770
C         -0.56254       -3.14723       -1.20131
C         -0.21199       -1.83403       -0.94280
C         -0.45491       -1.26161        0.27668
C         -1.03289       -1.98225        1.28835
C         -1.42306       -3.29669        1.09406
O         -1.84133       -5.12557       -0.49441
C         -0.19555       -3.75702       -2.56276
H          0.24312       -1.22219       -1.70206
H         -1.18208       -1.49810        2.23707
C         -2.03042       -4.08169        2.26743
C          4.58452        0.64943        0.19895
C          3.97089       -0.48438        0.79075
C          2.58876       -0.51076        0.87562
C          1.83531        0.56180        0.47542
C          2.42956        1.70620        0.01356
C          3.80656        1.79512       -0.10866
O          5.96672        0.62110       -0.12645
C          4.76922       -1.69646        1.29514
H          2.07585       -1.38623        1.23573
H          1.79536        2.52330       -0.28454
C          4.42521        3.10058       -0.63157
C          0.03581       -5.27462       -2.44971
C         -1.31784       -3.46264       -3.56942
C          1.11956       -3.14082       -3.09421
C         -1.48598       -3.55888        3.61623
C         -3.55746       -3.91394        2.26022
C         -1.66146       -5.57384        2.18088
C         -3.16000       -5.05048       -1.02148
H         -0.87141       -5.79402       -2.15198
H          0.35802       -5.69401       -3.40248
H          0.80302       -5.49100       -1.70698
H         -1.08066       -3.87407       -4.55013
H         -2.26245       -3.89176       -3.24368
H         -1.46299       -2.38821       -3.68011
H          1.45488       -3.65924       -3.99211
H          0.99659       -2.09174       -3.35872
H          1.91117       -3.21521       -2.34899
H         -1.81421       -4.19474        4.43816
H         -0.39628       -3.54743        3.61659
H         -1.84072       -2.55171        3.83071
H         -4.01467       -4.46828        3.07943
H         -3.83108       -2.86521        2.37044
H         -3.98954       -4.27312        1.32947
H         -2.03614       -6.12114        3.04549
H         -2.08384       -6.03534        1.29159
H         -0.58002       -5.70014        2.14172
H         -3.17959       -5.47665       -2.02429
H         -3.83689       -5.62888       -0.39281
H         -3.49584       -4.01341       -1.06067
C          6.24365        0.10509       -1.42265
C          4.04413       -2.36717        2.48450
C          4.90270       -2.72353        0.16030
C          6.16148       -1.27643        1.80021
C          3.56297        4.31619       -0.22192
C          5.82887        3.32785       -0.04187
C          4.49554        3.04565       -2.16546
H          3.11244       -2.83918        2.17619
H          4.66526       -3.14578        2.92674
H          3.81838       -1.63742        3.26168
H          5.45637       -3.60172        0.49144
H          3.92052       -3.05181       -0.17934
H          5.42352       -2.30060       -0.69545
H          6.70025       -2.12693        2.21718
H          6.76819       -0.86494        0.99767
H          6.07471       -0.51635        2.57592
H          4.06323        5.24941       -0.47973
H          2.60101        4.31884       -0.73227
H          3.38251        4.31892        0.85270
H          6.52186        2.55105       -0.35494
H          6.23925        4.28435       -0.36463
H          5.79271        3.32406        1.04699
H          5.11583        2.21866       -2.50229
H          4.91276        3.96686       -2.57118
H          3.50178        2.90777       -2.59109
H          6.87943       -0.77609       -1.33876
H          5.31643       -0.16240       -1.93117
H          6.77626        0.85421       -2.00830
