75
-122.81728575
P          1.82538       -0.58459        0.04566
C          3.13174       -1.33133       -0.94257
C          4.42027       -1.30674       -0.45918
C          5.43836       -1.90197       -1.18201
C          5.15580       -2.52803       -2.37963
C          3.85880       -2.56653       -2.85132
C          2.84326       -1.97110       -2.12599
H          1.82608       -2.00048       -2.48182
H          3.63690       -3.05882       -3.78390
H          5.94799       -2.99129       -2.94487
H          6.44880       -1.87998       -0.80810
H          4.62182       -0.83544        0.49010
C          1.72757       -1.55167        1.56139
C          1.49681       -0.94760        2.77596
C          1.51215       -1.69939        3.93574
C          1.75423       -3.05702        3.87130
C          1.97691       -3.66296        2.65079
C          1.96551       -2.90572        1.49310
H          2.15542       -3.36245        0.53467
H          2.16262       -4.72313        2.59920
H          1.76182       -3.64566        4.77408
H          1.32740       -1.22680        4.88638
H          1.28986        0.10851        2.81025
C          2.20063        1.13482        0.43163
C          3.34935        1.78687        0.04833
C          3.51624        3.13878        0.31465
C          2.48483        3.82920        0.95026
C          1.32100        3.19312        1.32109
C          1.17412        1.82094        1.06325
O         -0.00912        1.13950        1.39229
C         -1.20498        1.81389        1.09815
C         -1.36061        3.17996        1.38262
C         -2.54949        3.80389        1.07563
C         -3.59581        3.11009        0.46886
C         -3.41313        1.77044        0.15484
C         -2.23780        1.13137        0.47344
P         -1.84916       -0.55400       -0.02594
C         -1.66972       -1.62148        1.40594
C         -1.82517       -1.11894        2.67725
C         -1.76968       -1.97183        3.76415
C         -1.56073       -3.32268        3.56783
C         -1.40387       -3.82179        2.28982
C         -1.46155       -2.96644        1.20404
H         -1.35724       -3.34158        0.19791
H         -1.23723       -4.87537        2.13721
H         -1.51316       -3.98798        4.41440
H         -1.88596       -1.58146        4.76174
H         -1.98622       -0.06197        2.81302
C         -3.18545       -1.24279       -1.01628
C         -2.97952       -1.65785       -2.31176
C         -4.02616       -2.19904       -3.03514
C         -5.27159       -2.32791       -2.45322
C         -5.47173       -1.92102       -1.14917
C         -4.42241       -1.37999       -0.42811
H         -4.55893       -1.07008        0.59636
H         -6.44197       -2.02625       -0.69223
H         -6.08811       -2.74861       -3.01712
H         -3.86924       -2.51722       -4.05271
H         -2.00419       -1.55046       -2.75745
Pd         0.02035       -0.03427       -1.38972
Cl        -1.56079        1.06967       -2.57199
Cl         1.60351        0.76421       -2.77979
H         -4.18476        1.23406       -0.36862
C         -4.85515        3.80815        0.09766
H         -4.79091        4.20674       -0.91556
H         -5.05972        4.63848        0.77471
H         -5.70749        3.12868        0.13889
H         -2.66178        4.85102        1.29491
S         -0.00724        4.06470        2.11187
H          2.58949        4.88204        1.14435
C          4.74537        3.84911       -0.12807
H          4.11180        1.25171       -0.48891
H          4.63521        4.20902       -1.15176
H          4.95629        4.70771        0.51070
H          5.61351        3.18951       -0.09460
