171
-217.83449026
P         -1.47861        0.19540       -0.17223
P          1.69048       -0.70850        0.23674
C         -0.67929        0.69253       -1.71634
C          0.82770       -1.94731       -0.76022
C          0.03331       -0.26913       -2.42145
C          0.69466        0.09507       -3.60985
C          0.57826        1.39611       -4.07092
C         -0.14511        2.33588       -3.36696
C         -0.76633        1.98105       -2.18580
C          0.86804       -3.22346       -0.25008
C          0.18932       -4.24798       -0.88081
C         -0.54946       -3.97834       -2.01274
C         -0.61654       -2.69753       -2.53447
C          0.09713       -1.65944       -1.90650
Cl         1.24390       -0.42285        3.43353
Cl        -1.96235       -0.94426        2.89570
C         -1.46600       -2.45111       -3.73204
C          1.49987       -0.90140       -4.36937
H         -0.21742        3.34676       -3.73351
H         -1.30194        2.72162       -1.61851
H          1.42816       -3.41292        0.65384
H          0.22863       -5.24863       -0.48247
H          1.06490        1.67219       -4.99091
H         -1.09642       -4.76821       -2.49959
C         -4.70664       -2.80392       -1.23946
C         -3.91786       -3.05443       -0.12284
C         -2.93595       -2.12873        0.19859
C         -2.74731       -1.00985       -0.57104
C         -3.52546       -0.78543       -1.68045
C         -4.52635       -1.68135       -2.03839
H         -5.49496       -3.48852       -1.48859
H         -2.32789       -2.27117        1.07331
H         -3.33447        0.09009       -2.27607
C         -3.71166        3.77297        1.57021
C         -3.88001        3.43548        0.23387
C         -3.19341        2.32886       -0.25046
C         -2.34024        1.61510        0.55660
C         -2.20313        1.96255        1.88008
C         -2.89279        3.03902        2.41838
H         -4.24022        4.62515        1.95400
H         -3.32357        2.01555       -1.27099
H         -1.57731        1.37449        2.52412
C          5.76015       -2.46598        1.19906
C          5.22684       -2.62068       -0.07577
C          3.96841       -2.08754       -0.32195
C          3.27823       -1.43246        0.66813
C          3.81959       -1.29162        1.91938
C          5.07376       -1.80682        2.21310
H          6.73203       -2.86984        1.40735
H          3.51844       -2.18517       -1.29637
H          3.24799       -0.78830        2.67739
C          2.79399        3.37434       -1.40263
C          1.77664        3.30729       -0.45875
C          1.42268        2.05506        0.03098
C          2.05072        0.92308       -0.43587
C          3.05523        1.01264       -1.36787
C          3.45175        2.24420       -1.87087
H          3.09056        4.34068       -1.76435
H          0.65095        1.95615        0.77257
H          3.55629        0.11404       -1.68438
Pd        -0.13854       -0.48750        1.67488
C         -4.47970       -3.81793        2.19587
C         -4.10814       -4.28408        0.77581
C         -2.79478       -5.08660        0.82230
C         -5.22526       -5.20666        0.25244
H         -3.69330       -3.20018        2.62793
H         -5.39569       -3.22786        2.17968
H         -4.63679       -4.66913        2.85793
H         -1.97960       -4.48939        1.22918
H         -2.90085       -5.97387        1.44605
H         -2.50715       -5.40946       -0.17785
H         -6.18409       -4.68909        0.23058
H         -5.00026       -5.56256       -0.75285
H         -5.33758       -6.08015        0.89461
C         -5.59864       -2.68108       -4.09432
C         -5.46426       -1.41515       -3.22544
C         -4.93603       -0.27532       -4.11973
C         -6.84625       -1.01544       -2.67985
H         -4.62592       -3.00532       -4.46200
H         -6.04034       -3.50595       -3.53730
H         -6.23571       -2.49168       -4.95817
H         -4.90341        0.66970       -3.57874
H         -3.93428       -0.49774       -4.48645
H         -5.58242       -0.13190       -4.98547
H         -7.26844       -1.81002       -2.06520
H         -6.77209       -0.11979       -2.06309
H         -7.54367       -0.81064       -3.49191
C         -4.89526        3.70047       -2.08538
C         -4.77902        4.29353       -0.66707
C         -4.17531        5.70557       -0.77448
C         -6.19194        4.37300       -0.05963
H         -5.54690        4.31277       -2.70854
H         -3.92232        3.65441       -2.57446
H         -5.31648        2.69582       -2.05486
H         -4.78115        6.34174       -1.41945
H         -4.11206        6.18279        0.20290
H         -3.16870        5.66252       -1.19055
H         -6.85827        4.95300       -0.69797
H         -6.61736        3.37612        0.05474
H         -6.17822        4.84609        0.92135
C         -3.31078        2.11089        4.70350
C         -2.77734        3.32731        3.92313
C         -3.59406        4.56866        4.32941
C         -1.30426        3.57093        4.29987
H         -3.26553        2.28500        5.77827
H         -4.34744        1.90703        4.43660
H         -2.72895        1.21596        4.48577
H         -3.24830        5.45566        3.79876
H         -4.65371        4.42851        4.11683
H         -3.49583        4.76331        5.39733
H         -0.68136        2.71284        4.05024
H         -0.91085        4.44091        3.77570
H         -1.20256        3.75296        5.36953
C          7.33485       -3.88113       -0.74933
C          5.96638       -3.34407       -1.21009
C          6.19311       -2.36165       -2.37456
C          5.11268       -4.53159       -1.69370
H          7.98296       -3.07042       -0.41696
H          7.22185       -4.59239        0.06868
H          7.84281       -4.39515       -1.56529
H          5.24824       -1.98713       -2.76670
H          6.78272       -1.50592       -2.04664
H          6.72576       -2.84389       -3.19398
H          4.91923       -5.22472       -0.87525
H          4.15129       -4.19712       -2.08202
H          5.61997       -5.07921       -2.48776
C          5.75780       -0.12747        3.94330
C          5.64299       -1.63061        3.62819
C          7.03889       -2.26774        3.76711
C          4.69636       -2.30059        4.64187
H          6.40404        0.36918        3.21981
H          4.78361        0.35902        3.91059
H          6.17662        0.03226        4.93666
H          7.00301       -3.33864        3.56798
H          7.74931       -1.81046        3.07864
H          7.42613       -2.13339        4.77706
H          5.08234       -2.20781        5.65677
H          3.70642       -1.84647        4.61971
H          4.58228       -3.36119        4.41901
C          0.58231        5.41601       -1.14791
C          1.12980        4.60710        0.04351
C          2.18936        5.43689        0.79065
C         -0.03597        4.32486        1.00501
H          1.37419        5.69007       -1.84350
H         -0.16182        4.84041       -1.69646
H          0.10745        6.33587       -0.80695
H          3.01849        5.70049        0.13492
H          1.76048        6.36152        1.17659
H          2.59390        4.87489        1.63229
H         -0.81397        3.74684        0.51007
H          0.30534        3.77151        1.87875
H         -0.48755        5.25350        1.35368
C          4.38248        1.39628       -4.04814
C          4.63928        2.31647       -2.84136
C          5.90984        1.85570       -2.10383
C          4.86151        3.74837       -3.36479
H          4.26606        0.35851       -3.73941
H          3.47716        1.69797       -4.57308
H          5.21094        1.43995       -4.75493
H          5.80350        0.83461       -1.73923
H          6.77835        1.88908       -2.76132
H          6.11000        2.49600       -1.24498
H          3.97209        4.12063       -3.87311
H          5.10779        4.43131       -2.55206
H          5.68630        3.77589       -4.07682
H         -1.05316       -2.94475       -4.61297
H          2.03472       -1.56947       -3.69222
H         -1.55552       -1.38650       -3.95051
H         -2.47210       -2.83980       -3.57193
H          2.23952       -0.41372       -5.00542
H          0.86322       -1.51055       -5.01170
