111
-148.55829239
P         -2.55107        2.18980        0.50757
P          0.01861        0.34692        0.47846
C         -1.65403        1.87335        2.05271
C         -0.51263        1.10208        2.02572
C         -3.25575        3.90160        0.47766
C         -2.44556        4.82540       -0.40533
C         -2.10265        2.39517        3.24954
H         -3.00915        2.97710        3.27223
C         -1.39483        2.15522        4.41463
H         -1.74372        2.56387        5.34895
C         -0.24323        1.39265        4.38189
H          0.30852        1.20673        5.28865
C          0.19674        0.86005        3.18352
H          1.09008        0.25692        3.14247
Pd        -1.14684        1.45781       -1.17942
Cl        -2.61587        2.42363       -2.57657
Cl         0.32035        0.79558       -2.73467
C         -4.70269        3.65972        0.00947
C         -4.09947        1.19039        0.34199
H         -2.86590        5.83365       -0.42027
H         -1.41015        4.89373       -0.06325
H         -2.42633        4.46289       -1.43368
H         -4.73690        3.74435       -1.08554
H         -5.36689        4.45129        0.38874
H         -4.07215        0.75285       -0.66477
C         -5.21193        2.25232        0.43547
C         -4.16721        0.10953        1.40010
H         -3.24900        4.26165        1.51400
H         -5.57495        2.29362        1.47159
H         -6.08067        1.95021       -0.16892
H         -5.08475       -0.47726        1.31447
H         -3.31844       -0.57447        1.32559
H         -4.14540        0.54654        2.40016
C         -1.23281       -4.03593        0.33344
C         -0.35949       -3.57930        1.35311
C          0.00844       -2.24365        1.35278
C         -0.51227       -1.36553        0.43831
C         -1.44114       -1.78214       -0.47958
C         -1.85273       -3.10240       -0.53504
O         -1.45514       -5.42760        0.15701
C          0.20997       -4.51219        2.43345
H          0.72426       -1.87149        2.06495
H         -1.83354       -1.06509       -1.17733
C         -2.92717       -3.50515       -1.55731
C          4.48044        0.72715       -0.33844
C          3.79957       -0.47435       -0.66093
C          2.44065       -0.54498       -0.40507
C          1.78127        0.48463        0.21276
C          2.45337        1.60801        0.61730
C          3.81406        1.74345        0.39372
O          5.81421        0.92986       -0.78233
C          4.49491       -1.67866       -1.31439
H          1.86920       -1.40679       -0.70395
H          1.89333        2.38708        1.10518
C          4.53726        2.99506        0.91538
C         -0.78265       -5.63876        2.77395
C          1.53877       -5.10712        1.94370
C          0.47107       -3.73308        3.74277
C         -3.90213       -2.33359       -1.81690
C         -2.24845       -3.87992       -2.88342
C         -3.77241       -4.68323       -1.04021
C         -0.53066       -6.05333       -0.72418
H         -0.40702       -6.25985        3.58675
H         -1.74293       -5.22451        3.07930
H         -0.95616       -6.28704        1.91874
H          1.96659       -5.77513        2.69080
H          1.40351       -5.67264        1.02486
H          2.26254       -4.31780        1.74364
H          0.75016       -4.41233        4.54796
H          1.28512       -3.01835        3.63180
H         -0.42120       -3.19144        4.05584
H         -4.73320       -2.65433       -2.44451
H         -4.31606       -1.95978       -0.88111
H         -3.41481       -1.50739       -2.33233
H         -1.56652       -4.71702       -2.75448
H         -2.98653       -4.15913       -3.63483
H         -1.67242       -3.04005       -3.27135
H         -4.57385       -4.92633       -1.73738
H         -3.16875       -5.57771       -0.90895
H         -4.22184       -4.43941       -0.07813
H         -0.00147       -6.84647       -0.19627
H         -1.06785       -6.50077       -1.56026
H          0.18821       -5.32499       -1.10179
C          5.90907        1.53022       -2.06806
C          4.39643       -1.55059       -2.84202
C          5.96909       -1.77476       -0.88166
C          3.81455       -2.99853       -0.88327
C          3.85586        3.52334        2.19842
C          5.99875        2.67928        1.28245
C          4.48634        4.09508       -0.15563
H          4.86813       -2.39909       -3.33687
H          3.35425       -1.51081       -3.15811
H          4.88201       -0.64326       -3.19335
H          6.44179       -2.66501       -1.29578
H          6.53949       -0.91314       -1.21893
H          6.04769       -1.82267        0.20394
H          2.80686       -3.08653       -1.28663
H          4.37803       -3.85970       -1.24167
H          3.75682       -3.06503        0.20262
H          4.43929        4.32975        2.64220
H          2.86375        3.92275        1.99347
H          3.76064        2.73144        2.94095
H          6.49179        3.55053        1.71294
H          6.04532        1.86921        2.00949
H          6.57086        2.37655        0.40899
H          3.45474        4.34408       -0.40330
H          4.97822        3.77652       -1.07148
H          4.97888        5.00255        0.19271
H          6.47859        2.45679       -1.99733
H          6.43344        0.85952       -2.74843
H          4.91437        1.74292       -2.46200
