111
-148.55364123
P         -2.32965        2.34631        0.62670
P          0.04151        0.25126        0.50691
C         -1.39149        1.96927        2.12654
C         -0.38262        1.03271        2.07684
C         -2.37486        4.16338        0.29301
C         -1.47081        4.51634       -0.86810
C         -1.69790        2.59346        3.31843
H         -2.48091        3.33402        3.34480
C         -1.00054        2.26164        4.46725
H         -1.23933        2.74642        5.39974
C         -0.00569        1.30370        4.42128
H          0.53091        1.03828        5.31729
C          0.30252        0.68533        3.22269
H          1.06799       -0.07346        3.17372
Pd        -1.54374        0.95831       -1.04143
Cl        -3.11884        1.87444       -2.35286
Cl        -0.76959       -0.52540       -2.53657
C         -3.87049        4.43540        0.04687
C         -4.14446        1.99837        0.78389
H         -0.43459        4.23495       -0.66437
H         -1.78082        3.98946       -1.77252
H         -1.49674        5.58714       -1.08374
H         -4.06514        4.37844       -1.03300
H         -4.12686        5.46498        0.33942
H         -4.42411        1.46049       -0.13184
C         -4.77005        3.40561        0.78725
C         -4.46477        1.16626        2.00785
H         -2.03969        4.65615        1.21510
H         -4.91404        3.72671        1.82795
H         -5.77794        3.37664        0.34614
H         -4.18599        1.69296        2.92149
H         -5.53225        0.94280        2.07018
H         -3.92083        0.21993        1.99933
C         -0.88424       -4.20016        0.70635
C         -1.92891       -3.24109        0.78718
C         -1.58696       -1.89905        0.76804
C         -0.28833       -1.50299        0.58317
C          0.70664       -2.42220        0.37824
C          0.43678       -3.78060        0.39484
O         -1.14676       -5.56171        1.00592
C         -3.42318       -3.59993        0.85170
H         -2.34145       -1.14009        0.88867
H          1.70606       -2.06473        0.19999
C          1.58073       -4.74924        0.04992
C          4.28728        1.15794       -0.91095
C          3.35604        0.53572       -1.77965
C          2.07471        0.30948       -1.30939
C          1.71845        0.61567       -0.02255
C          2.64215        1.13556        0.84673
C          3.94539        1.38132        0.44727
O          5.54908        1.58047       -1.40829
C          3.70497        0.13752       -3.22264
H          1.31758       -0.10132       -1.95285
H          2.32895        1.35825        1.85021
C          4.95874        1.89842        1.48146
C         -3.68769       -5.06565        0.46638
C         -3.95402       -3.33668        2.27022
C         -4.20380       -2.72154       -0.15251
C          2.54537       -4.84873        1.24261
C          1.06419       -6.15176       -0.31545
C          2.35292       -4.21877       -1.17872
C         -1.01145       -5.85825        2.38553
H         -3.24697       -5.74863        1.18878
H         -4.75641       -5.27444        0.42455
H         -3.25841       -5.28928       -0.50964
H         -5.02111       -3.54866        2.33206
H         -3.44563       -3.96063        3.00274
H         -3.80117       -2.29681        2.55678
H         -3.78707       -2.82084       -1.15440
H         -5.25223       -3.01550       -0.19326
H         -4.17427       -1.66806        0.11993
H          3.38207       -5.50785        1.01249
H          2.94947       -3.86955        1.49807
H          2.04264       -5.24097        2.12436
H          1.87759       -6.79615       -0.64810
H          0.59196       -6.63234        0.53821
H          0.32722       -6.09285       -1.11564
H          3.10348       -4.93749       -1.50667
H          1.67303       -4.03865       -2.01101
H          2.87298       -3.28835       -0.95736
H         -1.26314       -6.90545        2.55440
H          0.01275       -5.67844        2.70759
H         -1.67907       -5.22805        2.97077
C          5.56505        2.91456       -1.90079
C          3.43838        1.32733       -4.15701
C          5.17414       -0.30863       -3.33187
C          2.83702       -1.05305       -3.69046
C          4.60345        1.38856        2.89719
C          6.37854        1.39168        1.16854
C          4.93418        3.43431        1.49548
H          4.04499        2.18736       -3.88496
H          3.66462        1.06975       -5.19134
H          2.39259        1.62953       -4.10539
H          5.85483        0.50480       -3.09338
H          5.37815       -1.12783       -2.64311
H          5.40665       -0.64796       -4.34096
H          2.90500       -1.88181       -2.98740
H          1.78943       -0.77404       -3.79268
H          3.16747       -1.41360       -4.66422
H          3.68221        1.83543        3.26811
H          4.48626        0.30514        2.90106
H          5.38950        1.64237        3.60807
H          6.39443        0.30357        1.11600
H          6.73733        1.77623        0.21724
H          7.08470        1.70456        1.93727
H          5.63722        3.82929        2.22843
H          3.93994        3.80112        1.74953
H          5.19825        3.84261        0.52309
H          6.28594        3.50507       -1.33571
H          5.87314        2.91398       -2.94622
H          4.57576        3.36526       -1.81243
