111
-148.55109309
P         -2.55751        2.10332        1.06630
P          0.08710        0.43727        0.50637
C         -1.44882        1.67068        2.43707
C         -0.28502        0.97834        2.18298
C         -3.37412        3.73657        1.37548
C         -3.17254        4.68464        0.21419
C         -1.76986        2.01947        3.73364
H         -2.68748        2.54875        3.93155
C         -0.91946        1.67697        4.77090
H         -1.17051        1.94891        5.78317
C          0.24831        0.98558        4.51131
H          0.90911        0.71702        5.31901
C          0.56509        0.63201        3.21200
H          1.46570        0.08042        2.99134
Pd        -1.36520        1.62139       -0.85939
Cl        -3.07272        2.45968       -2.03833
Cl         0.05546        1.11384       -2.52891
C         -4.84731        3.34715        1.61938
C         -4.04127        1.00345        0.95850
H         -2.11123        4.83603        0.00356
H         -3.63443        4.28704       -0.69039
H         -3.62242        5.66089        0.40988
H         -5.50348        4.15653        1.26739
H         -5.03820        3.26077        2.69918
H         -3.96167        0.45421        0.01015
C         -5.21347        2.00531        0.92437
C         -4.08233        0.04093        2.12519
H         -2.91721        4.15120        2.28411
H         -6.09813        1.55266        1.39558
H         -5.50150        2.20465       -0.11841
H         -4.94711       -0.62444        2.06759
H         -3.18149       -0.57578        2.15832
H         -4.14388        0.58348        3.07039
C         -1.05917       -3.91718       -0.15175
C         -1.11512       -3.37998        1.16058
C         -0.77161       -2.05028        1.34055
C         -0.46117       -1.25220        0.27094
C         -0.51935       -1.73839       -1.00776
C         -0.85468       -3.05639       -1.26014
O         -1.15610       -5.31986       -0.35172
C         -1.48404       -4.22916        2.38682
H         -0.71461       -1.62548        2.32696
H         -0.27605       -1.06534       -1.81128
C         -0.94277       -3.53342       -2.71741
C          4.47120        0.64568       -0.69468
C          3.91423       -0.57793       -0.23713
C          2.57683       -0.59202        0.12003
C          1.82616        0.55474        0.10892
C          2.39170        1.76156       -0.20654
C          3.72471        1.84892       -0.57518
O          5.73159        0.65108       -1.34551
C          4.69829       -1.89540       -0.11548
H          2.09650       -1.51697        0.39200
H          1.76941        2.64036       -0.18637
C          4.30581        3.24770       -0.84125
C         -0.20440       -4.82944        2.98868
C         -2.17823       -3.36345        3.46245
C         -2.47089       -5.35007        2.01248
C          0.44879       -3.98386       -3.18770
C         -1.95385       -4.68435       -2.86660
C         -1.42739       -2.38627       -3.63404
C          0.09697       -5.99234       -0.32247
H         -0.43150       -5.43221        3.86762
H          0.30898       -5.46353        2.26957
H          0.48667       -4.04183        3.28840
H         -3.03899       -2.84363        3.04354
H         -2.53213       -3.98237        4.28665
H         -1.50191       -2.62312        3.88683
H         -2.78463       -5.90701        2.89502
H         -3.36022       -4.93568        1.53878
H         -2.02352       -6.05810        1.31947
H          1.16288       -3.16357       -3.11738
H          0.82490       -4.80282       -2.57897
H          0.42117       -4.31925       -4.22408
H         -1.64015       -5.56323       -2.30906
H         -2.93304       -4.38497       -2.49441
H         -2.06259       -4.97770       -3.91043
H         -0.68654       -1.59245       -3.71506
H         -1.61634       -2.75071       -4.64341
H         -2.35260       -1.95245       -3.25574
H          0.90629       -5.28225       -0.14708
H          0.09257       -6.74017        0.47036
H          0.26118       -6.50258       -1.27142
C          5.62665        0.43791       -2.74355
C          4.24553       -2.86228       -1.22296
C          6.21939       -1.68359       -0.20441
C          4.41115       -2.53679        1.26052
C          3.88300        4.20476        0.29517
C          5.84400        3.24682       -0.87738
C          3.75947        3.78015       -2.17656
H          3.17751       -3.06574       -1.14990
H          4.43676       -2.44703       -2.21058
H          4.77327       -3.81284       -1.14999
H          6.54803       -0.94694        0.52786
H          6.75710       -2.61283       -0.01747
H          6.51162       -1.32747       -1.18929
H          4.64962       -1.84212        2.06543
H          3.36642       -2.82577        1.36335
H          5.01119       -3.43522        1.40296
H          2.80510        4.35559        0.31810
H          4.18931        3.81032        1.26362
H          4.34437        5.18401        0.16987
H          6.23542        4.25968       -0.96935
H          6.24950        2.80645        0.03284
H          6.21850        2.67228       -1.72118
H          4.13319        4.78362       -2.37834
H          2.67087        3.82330       -2.16240
H          4.05357        3.13977       -3.00568
H          6.62285        0.45521       -3.18605
H          5.16116       -0.52626       -2.94111
H          5.01782        1.21876       -3.19598
