111
-148.55490651
P         -2.55564        2.03882        0.72620
P          0.15019        0.40254        0.48104
C         -1.50947        1.79948        2.18869
C         -0.31177        1.12867        2.06618
C         -3.38367        3.69464        0.74268
C         -2.72770        4.65919       -0.22105
C         -1.90797        2.27488        3.42179
H         -2.85521        2.77944        3.51837
C         -1.09787        2.08560        4.52819
H         -1.40827        2.45737        5.49104
C          0.10515        1.41820        4.40105
H          0.73434        1.26816        5.26291
C          0.49672        0.93284        3.16642
H          1.42364        0.39238        3.05335
Pd        -1.26178        1.37982       -1.07031
Cl        -2.87184        2.23703       -2.37743
Cl         0.07918        0.67460       -2.72803
C         -4.84677        3.34457        0.41432
C         -4.03644        0.92917        0.68045
H         -1.67242        4.80564        0.02110
H         -2.77890        4.28286       -1.24329
H         -3.21872        5.63496       -0.20549
H         -4.99104        3.41886       -0.67241
H         -5.52828        4.08806        0.85509
H         -4.06714        0.50557       -0.33244
C         -5.20874        1.90692        0.88660
C         -3.93612       -0.16777        1.71834
H         -3.30615        4.07058        1.77064
H         -5.46872        1.92710        1.95389
H         -6.10887        1.53936        0.37085
H         -3.83850        0.25452        2.72018
H         -4.82178       -0.80732        1.71143
H         -3.06266       -0.79911        1.54228
C         -1.25171       -3.93332        0.32311
C         -1.10525       -3.28775        1.57777
C         -0.64638       -1.98123        1.59486
C         -0.40681       -1.30120        0.42975
C         -0.64923       -1.88790       -0.78392
C         -1.10990       -3.18863       -0.87515
O         -1.50724       -5.32941        0.26911
C         -1.41826       -3.99181        2.90740
H         -0.47122       -1.47231        2.52598
H         -0.47266       -1.30376       -1.66965
C         -1.43582       -3.76557       -2.26156
C          4.54994        0.83395       -0.61231
C          3.82907       -0.32023       -1.01067
C          2.49329       -0.41073       -0.65883
C          1.89284        0.55365        0.10691
C          2.60995        1.62330        0.57600
C          3.95446        1.76850        0.27382
O          5.84974        1.07449       -1.13169
C          4.45227       -1.44340       -1.85370
H          1.89251       -1.23549       -0.99927
H          2.09885        2.35272        1.18031
C          4.73645        2.94084        0.88727
C         -0.16286       -4.72478        3.40324
C         -1.84770       -2.96838        3.98354
C         -2.58269       -4.98540        2.74309
C         -0.16903       -4.39332       -2.86215
C         -2.56089       -4.81278       -2.17710
C         -1.93131       -2.64953       -3.21068
C         -0.33380       -6.12978        0.20128
H          0.16221       -5.47691        2.68857
H          0.66035       -4.02517        3.54629
H         -0.35167       -5.22345        4.35360
H         -1.02448       -2.31669        4.27257
H         -2.66798       -2.34773        3.62440
H         -2.18488       -3.47630        4.88682
H         -2.84915       -5.43852        3.69763
H         -3.46439       -4.48116        2.34881
H         -2.32374       -5.78933        2.05831
H          0.61544       -3.64523       -2.97258
H          0.21749       -5.18704       -2.22713
H         -0.37157       -4.81626       -3.84575
H         -2.25860       -5.67400       -1.58675
H         -3.44861       -4.38478       -1.71255
H         -2.83655       -5.17287       -3.16795
H         -1.13711       -1.94719       -3.45898
H         -2.28945       -3.07060       -4.14969
H         -2.75164       -2.09218       -2.75916
H          0.55781       -5.50314        0.24789
H         -0.32627       -6.83582        1.03158
H         -0.33008       -6.69806       -0.72859
C          5.85833        1.83063       -2.33615
C          4.24097       -1.13101       -3.34304
C          5.95293       -1.60200       -1.55015
C          3.78295       -2.80018       -1.53462
C          6.21587        2.57098        1.09976
C          4.62418        4.16568       -0.03280
C          4.16279        3.31012        2.27451
H          3.17858       -1.04730       -3.57128
H          4.71230       -0.19064       -3.61882
H          4.66124       -1.91615       -3.97095
H          6.37770       -2.44078       -2.10107
H          6.51060       -0.71101       -1.82723
H          6.11257       -1.77850       -0.48699
H          4.30394       -3.61596       -2.03529
H          3.80048       -2.99894       -0.46336
H          2.74806       -2.82904       -1.87137
H          6.30301        1.67609        1.71504
H          6.71591        2.37537        0.15450
H          6.75433        3.37789        1.59618
H          5.15844        5.01839        0.38545
H          5.03902        3.95918       -1.01646
H          3.58151        4.45280       -0.16659
H          4.11158        2.43262        2.91865
H          3.16438        3.73800        2.19809
H          4.79100        4.05128        2.76813
H          4.84077        2.09844       -2.62367
H          6.44716        2.73682       -2.19484
H          6.31853        1.24612       -3.13258
