171
-217.84496013
P         -1.61604        0.46368       -0.37102
P          1.57721       -0.34502       -0.33272
C         -0.88133        1.45802       -1.67544
C          0.87184       -1.25373       -1.70945
C         -0.05762        0.87834       -2.63434
C          0.59954        1.71545       -3.55702
C          0.38067        3.08205       -3.50775
C         -0.46362        3.63411       -2.56807
C         -1.08642        2.81617       -1.64638
C          1.06456       -2.61251       -1.75842
C          0.50967       -3.35510       -2.78223
C         -0.24885       -2.72695       -3.74732
C         -0.45626       -1.35760       -3.71382
C          0.12649       -0.59805       -2.68186
Cl         1.59000        0.44076        2.83479
Cl        -1.58478       -0.30258        2.87375
C         -1.26307       -0.70405       -4.78046
C          1.54188        1.16917       -4.57206
H         -0.62959        4.69876       -2.54509
H         -1.73561        3.24129       -0.89847
H          1.65331       -3.09347       -0.99375
H          0.67041       -4.41977       -2.82738
H          0.88655        3.71664       -4.21588
H         -0.68866       -3.30322       -4.54374
C         -3.78950       -3.32907       -1.53812
C         -2.79392       -3.38714       -0.57022
C         -2.11788       -2.21393       -0.26429
C         -2.42361       -1.04192       -0.90998
C         -3.41041       -0.99978       -1.86454
C         -4.12462       -2.14714       -2.19006
H         -4.32950       -4.22459       -1.77726
H         -1.36423       -2.20699        0.50461
H         -3.64255       -0.05915       -2.33550
C         -4.45219        2.79485        2.30144
C         -4.94942        1.73652        1.54956
C         -4.06859        1.06449        0.71299
C         -2.74898        1.43435        0.63926
C         -2.27446        2.47941        1.39255
C         -3.11677        3.17742        2.24728
H         -5.11863        3.32785        2.95155
H         -4.41188        0.23248        0.12349
H         -1.23112        2.73916        1.33065
C          4.19925       -3.09058        2.15646
C          4.80506       -2.15785        1.32477
C          3.98230       -1.32631        0.57639
C          2.61632       -1.44195        0.65063
C          2.03566       -2.37197        1.47790
C          2.81934       -3.20212        2.26918
H          4.82230       -3.74720        2.73500
H          4.40341       -0.57433       -0.06559
H          0.96224       -2.43016        1.51894
C          3.97090        3.27508       -1.60262
C          2.94791        3.43707       -0.67708
C          2.22738        2.31005       -0.30355
C          2.50868        1.08907       -0.86333
C          3.50587        0.94958       -1.79758
C          4.26778        2.04742       -2.18144
H          4.56721        4.12889       -1.86630
H          1.44462        2.37340        0.43197
H          3.68560       -0.02488       -2.21892
Pd        -0.02675        0.13960        1.30737
C         -3.33021       -5.85705       -0.24407
C         -2.45955       -4.66841        0.20616
C         -2.70940       -4.42267        1.70644
C         -0.98283       -5.03380       -0.02709
H         -3.07570       -6.75602        0.31727
H         -4.38812       -5.65390       -0.07871
H         -3.18014       -6.07497       -1.30134
H         -2.10703       -3.59607        2.08023
H         -3.75537       -4.17458        1.88539
H         -2.46657       -5.30782        2.29400
H         -0.70122       -5.91478        0.54936
H         -0.80477       -5.24979       -1.07976
H         -0.32227       -4.21784        0.26044
C         -6.31360       -1.03260       -2.69147
C         -5.28528       -2.06324       -3.19381
C         -5.99928       -3.41920       -3.35817
C         -4.74880       -1.62795       -4.56746
H         -5.87533       -0.03756       -2.62687
H         -7.16949       -0.97496       -3.36370
H         -6.67941       -1.30538       -1.70170
H         -6.41161       -3.76300       -2.40967
H         -6.82446       -3.33788       -4.06564
H         -5.31633       -4.17963       -3.73647
H         -4.26509       -0.65372       -4.51068
H         -4.02241       -2.34943       -4.94005
H         -5.55572       -1.55683       -5.29664
C         -7.19875        2.04203        2.70438
C         -6.41701        1.28943        1.61049
C         -6.48028       -0.21909        1.92178
C         -7.08136        1.56615        0.25063
H         -8.22868        1.68898        2.75551
H         -6.74669        1.88774        3.68402
H         -7.22947        3.11226        2.50130
H         -7.51290       -0.55530        2.01328
H         -6.00956       -0.80987        1.13701
H         -5.96863       -0.43954        2.85839
H         -8.12428        1.24978        0.25238
H         -7.05005        2.62990        0.01568
H         -6.56994        1.03368       -0.54966
C         -1.31458        3.82050        3.87271
C         -2.54519        4.32459        3.09224
C         -3.57569        4.85478        4.10767
C         -2.13424        5.47660        2.15906
H         -0.51610        3.50534        3.20284
H         -0.91427        4.60225        4.51782
H         -1.57923        2.96805        4.49789
H         -3.14126        5.64210        4.72362
H         -4.44525        5.27615        3.60383
H         -3.91190        4.06031        4.77373
H         -1.70271        6.30313        2.72332
H         -1.39678        5.14550        1.42985
H         -2.99679        5.85429        1.61034
C          6.87936       -1.73774        2.66859
C          6.33612       -2.06219        1.26488
C          6.79813       -0.95569        0.29621
C          6.91140       -3.40563        0.78082
H          6.46023       -0.80089        3.03523
H          6.62469       -2.51985        3.38278
H          7.96473       -1.63992        2.65418
H          6.44938       -1.15209       -0.71735
H          6.42456        0.01926        0.60888
H          7.88603       -0.89742        0.26484
H          6.51872       -3.65956       -0.20365
H          7.99809       -3.36178        0.70997
H          6.65434       -4.21545        1.46261
C          2.88827       -4.12644        4.61057
C          2.20099       -4.22379        3.23423
C          2.39064       -5.63574        2.65543
C          0.69564       -3.96366        3.44005
H          3.94249       -4.39317        4.55359
H          2.81740       -3.11223        5.00318
H          2.41853       -4.79903        5.32807
H          1.95643       -6.38939        3.31212
H          1.91140       -5.71970        1.68012
H          3.44796       -5.86704        2.52886
H          0.28085       -4.64572        4.18198
H          0.51851       -2.94529        3.78602
H          0.14258       -4.11465        2.51558
C          3.86502        5.23606        0.80178
C          2.66862        4.81859       -0.07069
C          1.39988        4.80257        0.80353
C          2.46291        5.84618       -1.19977
H          4.77946        5.29592        0.21241
H          3.69469        6.21116        1.25778
H          4.02881        4.51282        1.60048
H          1.51778        4.13552        1.65707
H          1.18392        5.79755        1.19238
H          0.53677        4.47560        0.22457
H          2.21842        6.82751       -0.79356
H          3.35894        5.95442       -1.80937
H          1.64788        5.53985       -1.85445
C          5.33393        2.97857       -4.26796
C          5.45327        1.92426       -3.15016
C          5.50984        0.52911       -3.80313
C          6.75870        2.15398       -2.36756
H          4.39989        2.86309       -4.81575
H          5.36373        3.99090       -3.86754
H          6.15335        2.88270       -4.98020
H          6.33461        0.46772       -4.51298
H          5.66309       -0.24969       -3.05667
H          4.58980        0.31115       -4.34461
H          7.62696        2.06490       -3.02021
H          6.77712        3.14608       -1.91743
H          6.86173        1.42263       -1.56666
H         -0.62224       -0.31869       -5.57404
H          2.49638        1.69307       -4.52783
H         -1.84257        0.12900       -4.37988
H         -1.95939       -1.40893       -5.23490
H          1.14293        1.28764       -5.58048
H          1.74210        0.10970       -4.40785
