64
-97.21822881
Cl        -1.55975       -0.88456       -2.72167
Cl         1.58538       -1.19532       -2.94337
P          1.91004       -0.70025        0.26729
C          2.05801       -2.37938        1.03534
C          3.71118       -0.34510       -0.03717
P         -1.26090       -0.15417        0.47622
C          1.28954        0.54919        1.45071
C         -0.13038        0.82367        1.53199
C         -0.32308        1.94584        2.43870
C          0.98915        2.38061        2.88520
C          1.98722        1.50519        2.29602
H         -1.28150        2.36606        2.74983
H          1.18810        3.19728        3.58281
Pd         0.13834       -0.89983       -1.25835
H          3.06771        1.56592        2.43803
C         -5.03297        2.04893       -0.84374
C         -4.04637        2.74220       -0.17164
C         -2.89973        2.08641        0.23587
C         -2.73746        0.74601       -0.03274
C         -3.72424        0.05221       -0.69558
C         -4.87442        0.70277       -1.10538
H         -5.92724        2.55845       -1.16381
H         -4.16843        3.79292        0.03474
H         -2.12605        2.62085        0.75796
H         -3.58707       -0.99817       -0.89765
H         -5.64288        0.15893       -1.62979
C         -2.57034       -3.96385        2.57293
C         -2.39912       -2.80116        3.29913
C         -2.00716       -1.63966        2.65758
C         -1.78716       -1.65383        1.29975
C         -1.96422       -2.80628        0.56948
C         -2.35586       -3.96854        1.20828
H         -2.87519       -4.86922        3.07202
H         -2.56895       -2.79782        4.36330
H         -1.86382       -0.72318        3.20801
H         -1.80549       -2.78727       -0.49702
H         -2.49460       -4.87439        0.64129
C          4.08729       -0.40513       -1.50137
H          3.90797        0.65688        0.36622
C          4.41690       -1.42908        0.80123
H          4.61808       -1.04886        1.81349
C          3.55484       -2.71577        0.89607
H          5.40172       -1.65238        0.36554
C          1.58375       -2.34391        2.47206
H          1.43756       -3.06184        0.43840
H          3.87442       -3.33582        1.74604
H          3.71958       -3.33216        0.00039
H          2.18267       -1.64233        3.05614
H          0.54407       -2.01984        2.54003
H          1.66288       -3.32505        2.94616
H          5.15642       -0.23634       -1.64689
H          3.84889       -1.38575       -1.91610
H          3.55002        0.33884       -2.09099
Fe         0.83775        2.42591        0.83479
C          2.23735        3.15932       -0.49389
C          1.42189        4.25493        0.00156
C          0.03707        3.97418       -0.33229
C          0.00015        2.68935       -1.00746
C          1.35851        2.20032       -1.13397
H          3.32594        3.09164       -0.43460
H          1.78992        5.14856        0.50974
H         -0.81984        4.61664       -0.12009
H         -0.88326        2.20825       -1.43258
H          1.65550        1.29739       -1.67015
