171
-217.84667149
P         -1.66616        0.46010       -0.33389
P          1.64584       -0.38679       -0.34472
C         -0.91497        1.41568       -1.65725
C          0.88666       -1.30039       -1.69083
C         -0.09753        0.81328       -2.60758
C          0.54538        1.62628       -3.56042
C          0.32201        2.99288       -3.54697
C         -0.51089        3.56790       -2.61089
C         -1.11997        2.77397       -1.65895
C          1.08064       -2.65965       -1.72866
C          0.47747       -3.42028       -2.71131
C         -0.33499       -2.81051       -3.64352
C         -0.54776       -1.44219       -3.61931
C          0.08577       -0.66362       -2.63205
Cl         1.55205        0.47366        2.81346
Cl        -1.51255       -0.38226        2.84433
C         -1.42027       -0.81680       -4.65102
C          1.44568        1.04356       -4.59311
H         -0.68323        4.63173       -2.61869
H         -1.75869        3.21601       -0.91108
H          1.70596       -3.12751       -0.98486
H          0.64114       -4.48479       -2.74881
H          0.81034        3.60866       -4.28340
H         -0.81528       -3.40016       -4.40611
C         -3.77385       -3.36823       -1.49546
C         -2.81456       -3.40231       -0.49060
C         -2.16766       -2.21583       -0.17527
C         -2.46908       -1.05547       -0.84340
C         -3.42145       -1.03558       -1.83209
C         -4.09864       -2.20023       -2.17594
H         -4.30084       -4.26903       -1.74761
H         -1.43918       -2.19055        0.61692
H         -3.63802       -0.10106       -2.32089
C         -4.46909        2.97521        2.18377
C         -5.00601        1.99181        1.36203
C         -4.12709        1.23774        0.59535
C         -2.77613        1.47341        0.64956
C         -2.26254        2.45185        1.46437
C         -3.10340        3.21959        2.25941
H         -5.13402        3.56244        2.79014
H         -4.48823        0.45138       -0.04319
H         -1.19664        2.59985        1.48798
C          4.32145       -3.12098        2.08633
C          2.94585       -3.20350        2.26292
C          2.14371       -2.36977        1.49488
C          2.70514       -1.46804        0.62484
C          4.06752       -1.38346        0.48118
C          4.90707       -2.21727        1.20849
H          4.95697       -3.77999        2.64845
H          1.07204       -2.40704        1.58292
H          4.47054       -0.65758       -0.20192
C          3.93827        3.33585       -1.50161
C          2.97088        3.41830       -0.50725
C          2.26675        2.26422       -0.19469
C          2.52662        1.08657       -0.84973
C          3.48472        1.01996       -1.83095
C          4.21546        2.15168       -2.17528
H          4.50820        4.21067       -1.75159
H          1.51966        2.27937        0.58015
H          3.65987        0.07597       -2.31810
Pd        -0.00056        0.08567        1.23369
C         -2.71756       -4.41999        1.79762
C         -2.47168       -4.67401        0.29787
C         -0.99247       -5.03002        0.06623
C         -3.33652       -5.87049       -0.14191
H         -3.75976       -4.15673        1.97655
H         -2.48683       -5.30702        2.38723
H         -2.10130       -3.60295        2.17000
H         -0.70262       -5.90241        0.65159
H         -0.81407       -5.25541       -0.98433
H         -0.33896       -4.20492        0.34480
H         -3.08351       -6.76153        0.43260
H         -4.39580       -5.66674        0.01365
H         -3.17933       -6.10218       -1.19520
C         -6.54795       -2.57613       -2.52803
C         -5.22161       -2.21670       -3.22298
C         -4.90490       -3.26529       -4.30592
C         -5.38644       -0.84361       -3.90349
H         -6.78180       -1.85252       -1.74739
H         -7.37282       -2.58304       -3.24030
H         -6.49718       -3.56125       -2.06559
H         -5.67428       -3.27201       -5.07784
H         -3.95002       -3.05259       -4.78464
H         -4.85021       -4.26828       -3.88477
H         -5.65577       -0.07578       -3.17851
H         -4.46800       -0.53872       -4.40351
H         -6.17572       -0.87672       -4.65440
C         -7.23624        3.04441        0.90259
C         -6.52199        1.75139        1.33663
C         -6.99287        1.34315        2.74436
C         -6.90251        0.62920        0.34969
H         -7.04145        3.85835        1.59988
H         -6.89535        3.35946       -0.08350
H         -8.31511        2.89712        0.85577
H         -6.79121        2.12815        3.47226
H         -8.06446        1.14472        2.75550
H         -6.47835        0.44095        3.07464
H         -7.98120        0.47378        0.33724
H         -6.59354        0.87818       -0.66538
H         -6.43733       -0.31547        0.63094
C         -3.00655        3.95544        4.65375
C         -2.56360        4.29060        3.21750
C         -3.11820        5.66590        2.80600
C         -1.02337        4.35387        3.18992
H         -2.61383        4.68349        5.36329
H         -4.09198        3.95392        4.74482
H         -2.64464        2.96968        4.94560
H         -2.74111        6.45077        3.46145
H         -2.82481        5.90862        1.78473
H         -4.20639        5.68387        2.85476
H         -0.66095        4.61996        2.19802
H         -0.65350        5.10554        3.88700
H         -0.58612        3.39667        3.47387
C          3.07697       -4.07737        4.61924
C          2.34931       -4.20082        3.26631
C          2.51494       -5.62599        2.71276
C          0.85074       -3.92931        3.50854
H          4.12938       -4.34423        4.53511
H          3.01711       -3.05593        4.99456
H          2.62953       -4.73644        5.36305
H          2.00669       -5.72799        1.75396
H          3.56681       -5.86641        2.56046
H          2.09620       -6.36289        3.39790
H          0.45344       -4.59730        4.27249
H          0.68826       -2.90495        3.84381
H          0.27019       -4.09130        2.60241
C          6.95478       -3.52243        0.58289
C          6.43496       -2.15794        1.07079
C          7.05532       -1.82300        2.43960
C          6.87258       -1.07850        0.06046
H          8.03730       -3.50539        0.45754
H          6.71373       -4.31439        1.29102
H          6.50775       -3.78358       -0.37618
H          6.81961       -2.58712        3.17933
H          8.14052       -1.75078        2.36917
H          6.67646       -0.87066        2.81011
H          7.95865       -1.04484       -0.02438
H          6.47113       -1.28387       -0.93168
H          6.53557       -0.09012        0.37254
C          1.23466        5.17476       -0.10979
C          2.65789        4.71625        0.25067
C          3.64566        5.84121       -0.11262
C          2.75041        4.46060        1.76799
H          0.50348        4.40196        0.12367
H          0.96134        6.07587        0.43887
H          1.16174        5.39250       -1.17475
H          4.67117        5.54876        0.11244
H          3.58188        6.09453       -1.17064
H          3.42662        6.74576        0.45468
H          2.02005        3.72179        2.09479
H          3.74036        4.09247        2.03618
H          2.56675        5.37636        2.32956
C          6.68753        2.36350       -2.49430
C          5.34859        2.11066       -3.21104
C          5.12102        3.19909       -4.27747
C          5.42437        0.74323       -3.91840
H          7.51956        2.33104       -3.19748
H          6.69651        3.33904       -2.00924
H          6.86281        1.60833       -1.72844
H          4.15914        3.06533       -4.77046
H          5.13559        4.19612       -3.83937
H          5.89774        3.16312       -5.04121
H          5.64002       -0.05531       -3.20897
H          4.48914        0.51017       -4.42609
H          6.21677        0.73868       -4.66674
H         -1.82105        0.13779       -4.30730
H          1.78063        0.04390       -4.31319
H         -2.26524       -1.46253       -4.89035
H         -0.86637       -0.63874       -5.57357
H          2.33282        1.66263       -4.72666
H          0.93985        0.97377       -5.55698
