111
-148.55085238
P         -2.63699        1.98958        0.90292
P          0.09469        0.45648        0.44440
C         -1.54510        1.65252        2.31338
C         -0.32728        1.04547        2.09468
C         -3.58920        3.55977        1.14458
C         -2.95903        4.73973        0.43803
C         -1.91737        1.99692        3.59757
H         -2.87955        2.44844        3.77276
C         -1.06169        1.74346        4.65582
H         -1.35272        2.01296        5.65799
C          0.16265        1.14430        4.43069
H          0.82756        0.94508        5.25493
C          0.52875        0.78853        3.14521
H          1.47130        0.30000        2.95273
Pd        -1.35481        1.57817       -0.97994
Cl        -2.63232        2.96164       -2.18360
Cl         0.03699        0.92435       -2.62385
C         -4.99285        3.17050        0.64818
C         -4.03639        0.78956        0.71270
H         -3.52367        5.65813        0.61406
H         -1.93284        4.90170        0.77571
H         -2.92724        4.57877       -0.63916
H         -5.05269        3.36851       -0.43111
H         -5.75707        3.81342        1.11127
H         -3.98866        0.42856       -0.32348
C         -5.28747        1.66679        0.91870
C         -3.90820       -0.35979        1.68876
H         -3.61562        3.74001        2.22641
H         -5.63705        1.54515        1.95303
H         -6.11385        1.30976        0.28579
H         -2.98601       -0.91982        1.52185
H         -3.88688        0.00635        2.71695
H         -4.74576       -1.05557        1.59989
C         -1.17532       -3.90230        0.03295
C         -0.98691       -3.34421        1.32322
C         -0.59500       -2.01945        1.41482
C         -0.45964       -1.24300        0.29433
C         -0.73486       -1.75238       -0.94607
C         -1.13964       -3.06464       -1.11065
O         -1.35641       -5.30314       -0.11512
C         -1.16158       -4.16270        2.61144
H         -0.37696       -1.57614        2.37009
H         -0.60376       -1.10606       -1.79534
C         -1.50014       -3.55704       -2.52031
C          4.53314        0.67173       -0.54609
C          3.88335       -0.58500       -0.45095
C          2.53027       -0.59951       -0.16100
C          1.84619        0.55902        0.09874
C          2.48953        1.76820        0.10760
C          3.84387        1.85508       -0.17386
O          5.86024        0.74803       -1.04637
C          4.60482       -1.92069       -0.69003
H          1.98380       -1.52629       -0.14751
H          1.91210        2.64920        0.32914
C          4.53579        3.22569       -0.10576
C          0.17373       -4.83168        2.97126
C         -1.58894       -3.25190        3.78532
C         -2.26157       -5.22670        2.44571
C         -0.22852       -4.05597       -3.22312
C         -2.55497       -4.67686       -2.46695
C         -2.10887       -2.40671       -3.35564
C         -0.14551       -6.02459       -0.30508
H          0.95322       -4.08351        3.11408
H          0.08618       -5.40864        3.89152
H          0.50225       -5.50477        2.18303
H         -2.46993       -2.66711        3.52241
H         -1.83296       -3.84566        4.66592
H         -0.79459       -2.56521        4.07409
H         -3.20148       -4.76334        2.14750
H         -1.99462       -5.95808        1.68684
H         -2.42933       -5.76547        3.37794
H          0.22709       -4.87865       -2.67698
H         -0.45044       -4.40259       -4.23206
H          0.50970       -3.25746       -3.29503
H         -3.44288       -4.34169       -1.93186
H         -2.85682       -4.97915       -3.46942
H         -2.17339       -5.55866       -1.95872
H         -2.93854       -1.93989       -2.82533
H         -1.37250       -1.63740       -3.58261
H         -2.48658       -2.77771       -4.30803
H         -0.04655       -6.78185        0.47252
H         -0.16621       -6.52924       -1.27078
H          0.71033       -5.34938       -0.26645
C          5.93871        0.90047       -2.45811
C          4.51381       -2.28669       -2.17928
C          6.07735       -1.84253       -0.24875
C          3.94650       -3.05211        0.13403
C          6.00800        3.08432        0.32215
C          4.44589        3.90820       -1.47909
C          3.84959        4.13266        0.94096
H          4.98268       -1.52828       -2.80144
H          5.00652       -3.23798       -2.37860
H          3.47310       -2.37326       -2.49110
H          6.14896       -1.54471        0.79680
H          6.57212       -2.80687       -0.36158
H          6.63120       -1.11767       -0.83997
H          2.94734       -3.28862       -0.22931
H          4.53330       -3.96823        0.07086
H          3.87266       -2.77408        1.18509
H          6.58284        2.52438       -0.41119
H          6.47920        4.06054        0.43372
H          6.08200        2.56096        1.27483
H          3.40576        4.03661       -1.77770
H          4.91572        4.89117       -1.45848
H          4.93866        3.31641       -2.24656
H          4.41388        5.05400        1.08360
H          3.78167        3.62928        1.90506
H          2.84563        4.41842        0.63081
H          4.93874        0.94037       -2.89205
H          6.47631        1.81783       -2.69736
H          6.48848        0.06287       -2.88697
