111
-148.55105020
P         -2.44364        2.17243        0.63806
P          0.12653        0.32080        0.47038
C         -1.34723        2.02130        2.07106
C         -0.23711        1.20878        1.99593
C         -2.78424        3.94883        0.24786
C         -2.31365        4.28954       -1.14952
C         -1.60990        2.72428        3.22937
H         -2.46545        3.37820        3.27271
C         -0.76800        2.59425        4.32029
H         -0.97397        3.14044        5.22632
C          0.33607        1.76684        4.24803
H          0.99163        1.66466        5.09715
C          0.60377        1.07420        3.08071
H          1.46634        0.43139        3.00674
Pd        -1.51461        0.91470       -1.05899
Cl        -3.34231        1.31025       -2.29458
Cl        -0.38728       -0.22601       -2.62758
C         -4.31004        4.07431        0.44621
C         -4.16870        1.56163        0.91787
H         -1.24440        4.09690       -1.26778
H         -2.84063        3.68541       -1.89003
H         -2.49701        5.33953       -1.38989
H         -4.71690        4.78522       -0.28743
H         -4.52496        4.51312        1.43156
H         -4.27224        0.63933        0.33033
C         -5.02668        2.69943        0.32865
C         -4.43985        1.29718        2.38438
H         -2.23716        4.54424        0.99152
H         -6.00354        2.72490        0.83358
H         -5.24312        2.49195       -0.72976
H         -3.70113        0.61600        2.81231
H         -4.39864        2.22518        2.95658
H         -5.43139        0.86436        2.53721
C         -0.92240       -4.09586        0.82582
C         -1.85873       -3.10483        1.21860
C         -1.47823       -1.77437        1.13784
C         -0.26317       -1.42086        0.60897
C          0.58530       -2.36895        0.09950
C          0.27314       -3.71582        0.16489
O         -1.15806       -5.46394        1.12572
C         -3.26726       -3.45155        1.72600
H         -2.13183       -0.99035        1.48014
H          1.49871       -2.04019       -0.36287
C          1.23085       -4.74300       -0.45819
C          4.35041        1.20021       -1.00640
C          3.23221        1.77387       -1.66283
C          1.96938        1.50677       -1.16136
C          1.79012        0.64268       -0.11295
C          2.86103        0.00556        0.45939
C          4.15209        0.23262        0.01119
O          5.66483        1.61951       -1.34401
C          3.36775        2.67954       -2.89710
H          1.09994        1.97162       -1.59293
H          2.67440       -0.67779        1.26943
C          5.31499       -0.54781        0.64475
C         -4.27822       -2.37022        1.28451
C         -3.76389       -4.78623        1.14029
C         -3.25072       -3.52031        3.26028
C          1.99916       -4.12229       -1.64715
C          2.24556       -5.20129        0.59983
C          0.45606       -5.95497       -1.00697
C         -0.68633       -5.86094        2.40696
H         -4.22275       -2.20355        0.20900
H         -5.29787       -2.66924        1.52617
H         -4.09538       -1.42375        1.78755
H         -3.72858       -4.76340        0.05161
H         -3.15265       -5.62002        1.47573
H         -4.79101       -4.98908        1.44250
H         -2.94101       -2.56586        3.68547
H         -4.23935       -3.75926        3.65136
H         -2.55603       -4.27994        3.61208
H          2.58065       -4.88079       -2.17064
H          1.30933       -3.67590       -2.36295
H          2.69762       -3.35384       -1.32022
H          2.80266       -4.35200        0.99385
H          1.74885       -5.68770        1.43595
H          2.95950       -5.90730        0.17639
H         -0.04936       -6.49530       -0.21003
H         -0.29845       -5.63463       -1.72466
H          1.12534       -6.65463       -1.50692
H         -0.14546       -5.04230        2.88340
H         -1.52731       -6.15308        3.03533
H         -0.02471       -6.72054        2.29982
C          6.12609        2.73751       -0.59601
C          3.49150        4.14238       -2.44559
C          4.58838        2.28022       -3.74598
C          2.12462        2.54637       -3.80729
C          4.84446       -1.94077        1.12052
C          6.44521       -0.78424       -0.37382
C          5.84837        0.23091        1.85651
H          4.36764        4.28862       -1.81836
H          3.57604        4.80966       -3.30294
H          2.61700        4.44278       -1.86882
H          4.52833        1.23106       -4.03346
H          4.64662        2.87854       -4.65486
H          5.51658        2.42307       -3.19834
H          2.27478        3.07504       -4.74822
H          1.92413        1.50056       -4.03871
H          1.23572        2.96964       -3.34204
H          4.14619       -1.87021        1.95307
H          4.35993       -2.48140        0.30855
H          5.68917       -2.53874        1.46189
H          7.23799       -1.39646        0.05534
H          6.06393       -1.29384       -1.25812
H          6.89211        0.15299       -0.69582
H          6.67000       -0.30313        2.33317
H          5.06302        0.37429        2.59832
H          6.21082        1.21369        1.56452
H          7.03027        2.46527       -0.05181
H          6.36999        3.55553       -1.27363
H          5.36162        3.06493        0.10971
