111
-148.55053369
P         -2.54223        2.02219       -0.50463
P          0.05650        0.48705        0.45829
C         -1.89616        2.30505        1.16394
C         -0.75694        1.64667        1.57281
C         -2.90006        3.62739       -1.35433
C         -2.04937        3.78646       -2.59556
C         -2.52630        3.18693        2.01832
H         -3.40468        3.71508        1.68519
C         -2.02140        3.39320        3.29053
H         -2.51437        4.07952        3.95954
C         -0.88627        2.72190        3.70269
H         -0.49370        2.88113        4.69351
C         -0.25135        1.84628        2.84012
H          0.63644        1.31620        3.14621
Pd        -1.06271        0.60330       -1.57581
Cl        -2.46950        0.59614       -3.32015
Cl         0.53695       -0.72339       -2.42184
C         -4.41699        3.55726       -1.63343
C         -4.21522        1.23239       -0.57870
H         -2.23701        4.74225       -3.09060
H         -0.98414        3.73163       -2.35786
H         -2.26727        2.99572       -3.31505
H         -4.63414        4.04260       -2.59590
H         -4.96395        4.14222       -0.87956
H         -4.06169        0.20566       -0.93833
C         -4.94383        2.09418       -1.62979
C         -4.89519        1.22974        0.77349
H         -2.66778        4.42034       -0.63031
H         -6.02704        2.07094       -1.43995
H         -4.80665        1.65612       -2.62943
H         -5.08948        2.24964        1.10903
H         -5.85454        0.70792        0.73974
H         -4.27342        0.74899        1.53011
C         -1.24747       -3.80845        1.16791
C          0.06581       -3.55126        0.69695
C          0.44877       -2.23318        0.51264
C         -0.38812       -1.20168        0.84873
C         -1.61608       -1.44294        1.40867
C         -2.05550       -2.73803        1.63134
O         -1.77472       -5.12569        1.11089
C          1.04631       -4.67166        0.31957
H          1.39512       -1.99311        0.05983
H         -2.24160       -0.60041        1.64728
C         -3.41227       -2.95395        2.31876
C          4.54571        1.22254        0.16643
C          3.68987        1.60292       -0.90095
C          2.32843        1.39580       -0.75335
C          1.82365        0.74981        0.34488
C          2.65982        0.26151        1.31580
C          4.03078        0.44980        1.24080
O          5.88807        1.68052        0.19599
C          4.18578        2.19265       -2.23239
H          1.64222        1.73293       -1.51200
H          2.22709       -0.27320        2.14426
C          4.91039       -0.19921        2.32314
C          2.50200       -4.22862        0.58617
C          0.80325       -5.93674        1.16254
C          0.89309       -4.99332       -1.17471
C         -3.63857       -1.88050        3.40695
C         -4.52966       -2.84965        1.26958
C         -3.47883       -4.31962        3.02679
C         -2.44409       -5.41658       -0.11014
H          3.19384       -5.05566        0.42831
H          2.80868       -3.42358       -0.07970
H          2.61683       -3.88837        1.61471
H          0.86085       -5.70626        2.22581
H         -0.17774       -6.36208        0.96637
H          1.54482       -6.70383        0.94082
H         -0.11354       -5.33719       -1.40142
H          1.08503       -4.10799       -1.78054
H          1.59209       -5.77112       -1.48088
H         -3.73956       -0.88451        2.98190
H         -4.55067       -2.08386        3.96758
H         -2.80784       -1.86524        4.11192
H         -5.50964       -2.98393        1.72666
H         -4.51414       -1.87438        0.78420
H         -4.41191       -3.60511        0.49542
H         -3.41313       -5.13979        2.31679
H         -2.65770       -4.42507        3.73498
H         -4.41498       -4.43244        3.57310
H         -1.99094       -6.29179       -0.57569
H         -3.49284       -5.63726        0.08753
H         -2.37617       -4.56711       -0.79112
C          6.02170        2.94653        0.82005
C          5.70474        2.03021       -2.41503
C          3.50827        1.44565       -3.40334
C          3.81617        3.68319       -2.30359
C          4.74280        0.56972        3.64387
C          4.47377       -1.66557        2.53036
C          6.39834       -0.22826        1.93181
H          5.99580        0.98665       -2.30032
H          6.01988        2.36501       -3.40302
H          6.25471        2.61239       -1.67942
H          3.68643        0.37331       -3.32896
H          2.43152        1.60504       -3.41793
H          3.89980        1.78658       -4.36132
H          2.73899        3.82230       -2.21673
H          4.28967        4.24441       -1.50020
H          4.13517        4.11834       -3.25034
H          3.70207        0.56781        3.96644
H          5.34063        0.11904        4.43566
H          5.05522        1.60683        3.53633
H          4.52534       -2.21482        1.59096
H          5.12305       -2.16678        3.24780
H          3.45595       -1.73650        2.90991
H          6.98697       -0.77933        2.66490
H          6.80920        0.77659        1.86905
H          6.53101       -0.70462        0.96105
H          5.68631        2.88995        1.85450
H          7.06846        3.25029        0.79659
H          5.41971        3.68709        0.29586
