58
-89.86785828
P          1.70413        0.33954        0.78213
C          3.16638        1.28510        0.35126
C          3.14588        2.65523        0.47628
C          4.26459        3.39306        0.13180
C          5.39469        2.75194       -0.33622
C          5.40926        1.37679       -0.46220
C          4.28910        0.64206       -0.11774
H          4.28284       -0.43126       -0.21741
H          2.25139        3.14323        0.83023
C          1.94236       -1.41088        0.44263
C          1.89168       -1.82635       -0.86912
C          2.03929       -3.16655       -1.17569
C          2.24331       -4.08263       -0.16326
C          2.31091       -3.66024        1.14977
C          2.16447       -2.31868        1.45287
H          2.23693       -1.97867        2.47285
H          1.73750       -1.09479       -1.64685
C          1.28709        0.67531        2.53969
C          0.09638       -0.10683        3.07340
C         -1.25712        0.40947        2.60945
P         -1.68514        0.00834        0.86776
C         -1.61789       -1.75425        0.51321
C         -1.60894       -2.13967       -0.80828
C         -1.52757       -3.47952       -1.13843
C         -1.46054       -4.42781       -0.13742
C         -1.48578       -4.03940        1.18765
C         -1.56938       -2.69787        1.51390
H         -1.61085       -2.38885        2.54522
H         -1.66676       -1.38201       -1.57394
C         -3.31375        0.67582        0.52207
C         -3.50354        2.03831        0.54914
C         -4.75357        2.56270        0.27151
C         -5.80282        1.71729       -0.03135
C         -5.60626        0.35057       -0.05866
C         -4.35537       -0.17071        0.21862
H         -4.18416       -1.23481        0.19458
H         -2.67136        2.68608        0.77617
Pd        -0.08146        0.76778       -0.62275
Cl         1.37957        1.70885       -2.04520
Cl        -1.80715        1.05383       -2.04106
H         -2.06819       -0.00807        3.21134
H         -1.31363        1.49401        2.71814
H          0.19941       -1.16248        2.79636
H          0.12498       -0.09448        4.17422
H          2.19576        0.44680        3.10234
H          1.11913        1.74906        2.63930
H          4.25080        4.46665        0.22376
H          6.28928        0.87659       -0.83182
H          1.99042       -3.49365       -2.20123
H          2.47776       -4.37512        1.93869
H         -1.51232       -3.78029       -2.17302
H         -1.44013       -4.78106        1.96812
H         -4.90557        3.62942        0.28697
H         -6.42382       -0.30898       -0.29910
H          6.26546        3.32629       -0.60751
H          2.35350       -5.12866       -0.39849
H         -1.39169       -5.47318       -0.39065
H         -6.77614        2.12520       -0.25040
