111
-148.55135426
P         -2.60661        2.14579        0.40152
P          0.10968        0.48942        0.59263
C         -1.67612        2.09117        1.95590
C         -0.49830        1.37948        2.03410
C         -3.25287        3.84423        0.05465
C         -2.54113        4.46134       -1.12945
C         -2.15884        2.74705        3.07036
H         -3.08769        3.29044        3.00716
C         -1.45487        2.69217        4.26117
H         -1.83071        3.20486        5.13152
C         -0.27472        1.97747        4.33644
H          0.27182        1.93195        5.26402
C          0.20283        1.31495        3.21972
H          1.11747        0.74442        3.26399
Pd        -1.26467        1.12777       -1.21311
Cl        -2.93131        1.48299       -2.70488
Cl         0.21596        0.18411       -2.64755
C         -4.76085        3.60908       -0.15782
C         -4.19331        1.20384        0.49300
H         -1.46615        4.54006       -0.95002
H         -2.67962        3.85151       -2.02385
H         -2.92339        5.46102       -1.34886
H         -4.95396        3.51867       -1.23557
H         -5.33666        4.48690        0.17229
H         -4.27760        0.66456       -0.45914
C         -5.25071        2.32002        0.56183
C         -4.20198        0.24259        1.66249
H         -3.07906        4.43471        0.96354
H         -5.46166        2.54441        1.61648
H         -6.20438        1.97052        0.13758
H         -4.08183        0.77890        2.60537
H         -5.14049       -0.31403        1.71533
H         -3.38344       -0.47765        1.59081
C         -1.19259       -3.85796        0.32407
C         -0.28509       -3.49129        1.35354
C          0.11377       -2.16703        1.44095
C         -0.42561       -1.22139        0.60987
C         -1.39886       -1.55040       -0.29377
C         -1.82967       -2.85444       -0.45036
O         -1.42514       -5.22904        0.03639
C          0.29790       -4.51325        2.34205
H          0.86804       -1.85972        2.14380
H         -1.75399       -0.59366       -0.93088
C         -2.90436       -3.16253       -1.50155
C          4.57538        0.81729       -0.23205
C          3.85409       -0.33543       -0.63398
C          2.49594       -0.38177       -0.36918
C          1.87193        0.62235        0.32308
C          2.58264        1.69310        0.79913
C          3.94609        1.79934        0.57610
O          5.91297        1.00753       -0.67009
C          4.50263       -1.50905       -1.38404
H          1.89478       -1.20217       -0.72248
H          2.05229        2.45359        1.34521
C          4.71510        2.98175        1.18681
C          1.61293       -5.07396        1.77999
C          0.58845       -3.84464        3.70484
C         -0.69573       -5.65861        2.60916
C         -3.73749       -4.39465       -1.10730
C         -3.88607       -1.97898       -1.63479
C         -2.22522       -3.38916       -2.86068
C         -0.51571       -5.78032       -0.90814
H          2.33813       -4.27507        1.62919
H          2.05060       -5.80169        2.46285
H          1.45601       -5.56401        0.82204
H         -0.29569       -3.32956        4.07960
H          0.88220       -4.58797        4.44565
H          1.40165       -3.12379        3.63579
H         -0.30914       -6.34543        3.36169
H         -1.64739       -5.26561        2.96534
H         -0.88948       -6.23457        1.70780
H         -3.12606       -5.29260       -1.06993
H         -4.18613       -4.25538       -0.12422
H         -4.53899       -4.57120       -1.82425
H         -4.70671       -2.22930       -2.30655
H         -4.31328       -1.72250       -0.66624
H         -3.39681       -1.09656       -2.04296
H         -2.96172       -3.59830       -3.63600
H         -1.66148       -2.50548       -3.15958
H         -1.53129       -4.22557       -2.81984
H          0.21461       -5.03055       -1.21540
H          0.00125       -6.63116       -0.46456
H         -1.06317       -6.13213       -1.78236
C          6.02236        1.70030       -1.90728
C          5.97626       -1.68643       -0.97628
C          3.78114       -2.83461       -1.04727
C          4.39472       -1.26185       -2.89637
C          6.16546        2.58714        1.52051
C          4.70107        4.16142        0.20311
C          4.05722        3.43468        2.51033
H          6.57234       -0.82067       -1.25306
H          6.06241       -1.81997        0.10155
H          6.41522       -2.55734       -1.46241
H          4.31300       -3.68438       -1.47452
H          3.72793       -2.98105        0.03094
H          2.76856       -2.85846       -1.44727
H          4.83307       -2.08524       -3.45957
H          3.35151       -1.16411       -3.19616
H          4.90724       -0.34677       -3.18351
H          6.69057        3.40473        2.01373
H          6.18511        1.72247        2.18303
H          6.72390        2.33231        0.62324
H          3.67856        4.46616       -0.01851
H          5.22772        5.02104        0.61680
H          5.17825        3.89625       -0.73721
H          4.67022        4.18433        3.01019
H          3.93707        2.59260        3.19150
H          3.07898        3.88264        2.34250
H          6.62751        2.59657       -1.77161
H          6.51616        1.06420       -2.64161
H          5.03419        1.97995       -2.27481
