171
-217.83780997
P         -1.70848        0.68710        0.25689
P          1.49598       -0.18101       -0.19945
C         -0.88586        1.89435       -0.80539
C          0.68727       -0.74527       -1.70937
C         -0.18142        1.57053       -1.95890
C          0.49586        2.59480       -2.64722
C          0.42550        3.89384       -2.17312
C         -0.28251        4.19677       -1.03020
C         -0.92944        3.18838       -0.34269
C          0.84728       -2.03532       -2.15359
C          0.22654       -2.45079       -3.31526
C         -0.56913       -1.57151       -4.01965
C         -0.75498       -0.26992       -3.58367
C         -0.08886        0.16166       -2.42044
Cl         2.00829        0.97485        2.81349
Cl        -1.16059        0.38614        3.45117
C         -1.63309        0.65404       -4.35309
C          1.30191        2.31560       -3.86735
H         -0.32462        5.21132       -0.66904
H         -1.46749        3.40525        0.56850
H          1.45444       -2.72280       -1.59011
H          0.35991       -3.45977       -3.66950
H          0.94490        4.67204       -2.70670
H         -1.05255       -1.89335       -4.92627
C         -2.81895       -3.38778       -1.38702
C         -3.48221       -2.25779       -1.84508
C         -3.08638       -1.02753       -1.33723
C         -2.08267       -0.94438       -0.40362
C         -1.45101       -2.07724        0.05577
C         -1.80106       -3.32655       -0.44345
H         -3.11732       -4.34828       -1.76481
H         -3.57078       -0.12164       -1.65624
H         -0.67937       -1.98118        0.79786
C         -5.74104        2.44613        1.35539
C         -5.00158        1.82537        2.35547
C         -3.75992        1.30904        2.01564
C         -3.28076        1.41571        0.73583
C         -4.02159        2.03738       -0.23974
C         -5.27362        2.56492        0.05209
H         -6.70790        2.85024        1.58954
H         -3.14931        0.83009        2.75886
H         -3.60996        2.10953       -1.23222
C          3.83366       -3.64431        1.62523
C          2.87751       -3.02055        2.41446
C          2.15221       -1.97972        1.85164
C          2.38821       -1.56395        0.56196
C          3.35912       -2.18067       -0.18981
C          4.09196       -3.24472        0.32109
H          4.40230       -4.45515        2.04204
H          1.40724       -1.47899        2.43932
H          3.54440       -1.82451       -1.18728
C          4.61103        2.88795       -1.39758
C          3.84641        3.13063       -0.26263
C          2.90148        2.18113        0.09791
C          2.72204        1.04858       -0.65368
C          3.47265        0.83382       -1.78400
C          4.44043        1.75085       -2.17788
H          5.37274        3.59091       -1.67679
H          2.31468        2.31660        0.98821
H          3.28486       -0.05010       -2.36825
Pd         0.15718        0.48121        1.64517
C         -5.72394       -3.30489       -2.25061
C         -4.63512       -2.39498       -2.84954
C         -4.10456       -3.01166       -4.15555
C         -5.27181       -1.02861       -3.17314
H         -5.34195       -4.30622       -2.05572
H         -6.09012       -2.89680       -1.30868
H         -6.57103       -3.39857       -2.92996
H         -4.90602       -3.13132       -4.88435
H         -3.34055       -2.37451       -4.59836
H         -3.66272       -3.99180       -3.97973
H         -6.09370       -1.14185       -3.87991
H         -5.67194       -0.56087       -2.27373
H         -4.54497       -0.35135       -3.61998
C          0.04409       -4.35043        0.97824
C         -1.14860       -4.62741        0.04757
C         -0.63359       -5.44298       -1.15388
C         -2.19492       -5.44911        0.82122
H          0.51425       -5.28298        1.28882
H          0.80106       -3.75449        0.47139
H         -0.27111       -3.82149        1.87693
H         -0.15758       -6.36536       -0.82141
H         -1.44179       -5.71387       -1.83160
H          0.10260       -4.87306       -1.71869
H         -3.04154       -5.70650        0.18556
H         -1.76334       -6.37653        1.19732
H         -2.57503       -4.88366        1.67188
C         -4.50992        2.39672        4.74629
C         -5.50021        1.69058        3.80122
C         -5.58976        0.19760        4.16830
C         -6.89177        2.32508        3.98722
H         -4.84568        2.33400        5.78115
H         -3.51939        1.94680        4.69016
H         -4.41350        3.45033        4.48520
H         -6.26756       -0.32472        3.49341
H         -4.61521       -0.28485        4.10278
H         -5.95820        0.06717        5.18561
H         -6.87227        3.38912        3.75226
H         -7.63155        1.84253        3.34874
H         -7.22902        2.22145        5.01849
C         -6.42232        4.70062       -0.58775
C         -6.13763        3.24955       -1.01637
C         -7.46320        2.48068       -1.16645
C         -5.43177        3.27534       -2.38698
H         -7.01771        5.21957       -1.33878
H         -6.96946        4.73597        0.35356
H         -5.49147        5.25168       -0.45475
H         -8.09083        2.93142       -1.93504
H         -7.27719        1.44429       -1.44752
H         -8.02743        2.47816       -0.23460
H         -5.22587        2.26574       -2.74200
H         -6.05556        3.76582       -3.13410
H         -4.49031        3.82189       -2.33344
C          3.99804       -3.14872        4.64621
C          2.69405       -3.43916        3.88118
C          2.37132       -4.94243        3.96124
C          1.54840       -2.65900        4.55790
H          3.90189       -3.41548        5.69849
H          4.83235       -3.71387        4.23212
H          4.24923       -2.08982        4.58723
H          3.16563       -5.54492        3.52263
H          2.24880       -5.25840        4.99710
H          1.44666       -5.16850        3.43237
H          1.42194       -2.97758        5.59234
H          1.75306       -1.58860        4.56777
H          0.60173       -2.82404        4.04426
C          4.71721       -5.44639       -0.69184
C          5.15054       -3.98016       -0.51220
C          6.50701       -3.92096        0.21426
C          5.31935       -3.34432       -1.90650
H          3.74921       -5.50274       -1.18983
H          5.44007       -5.99654       -1.29398
H          4.62819       -5.95223        0.26898
H          7.28405       -4.41319       -0.37036
H          6.81075       -2.88695        0.37674
H          6.46029       -4.41272        1.18504
H          4.38914       -3.38511       -2.47308
H          5.63113       -2.30318       -1.82570
H          6.07881       -3.87206       -2.48322
C          2.68775        5.14416        0.67764
C          4.02252        4.37898        0.61270
C          5.10017        5.32449        0.04905
C          4.44044        3.94632        2.03047
H          1.89957        4.53008        1.11178
H          2.78207        6.04362        1.28561
H          2.36828        5.44298       -0.32035
H          4.84127        5.65869       -0.95553
H          5.20289        6.21043        0.67558
H          6.07248        4.83368        0.01140
H          3.68206        3.31439        2.49116
H          5.37187        3.38144        2.00133
H          4.58953        4.81216        2.67517
C          4.85329        0.31478       -4.23857
C          5.35797        1.49408       -3.38285
C          6.76783        1.15988       -2.86460
C          5.42183        2.74493       -4.28094
H          4.86591       -0.61736       -3.67477
H          3.83702        0.49214       -4.58939
H          5.48669        0.17369       -5.11425
H          6.74362        0.27825       -2.22421
H          7.45132        0.96041       -3.68973
H          7.17576        1.98486       -2.28121
H          5.84266        3.59844       -3.75155
H          6.04604        2.56199       -5.15550
H          4.42897        3.02281       -4.63211
H         -2.06616        1.41736       -3.70462
H          2.28899        2.77152       -3.78575
H         -2.45689        0.11412       -4.82191
H         -1.07339        1.15787       -5.14204
H          0.81761        2.72143       -4.75667
H          1.44539        1.24530       -4.01877
