111
-148.55739410
P         -2.59632        1.96498        1.02471
P          0.14050        0.47426        0.48516
C         -1.46720        1.63444        2.40417
C         -0.25577        1.02599        2.15543
C         -3.48574        3.57584        1.21787
C         -2.93097        4.62605        0.28036
C         -1.81405        1.97392        3.69620
H         -2.77083        2.43083        3.88879
C         -0.93868        1.71019        4.73574
H         -1.20842        1.97503        5.74506
C          0.27787        1.10569        4.48239
H          0.95773        0.89818        5.29226
C          0.61867        0.75786        3.18758
H          1.55650        0.26956        2.97329
Pd        -1.34870        1.61218       -0.87683
Cl        -3.04483        2.33415       -2.15176
Cl         0.01764        1.18122       -2.60965
C         -4.95310        3.18925        0.95331
C         -4.03149        0.79985        0.94346
H         -3.03260        4.31010       -0.75893
H         -3.45837        5.57671        0.38854
H         -1.86895        4.80324        0.46641
H         -5.17466        3.35599       -0.10991
H         -5.63185        3.85743        1.50495
H         -4.10237        0.47850       -0.10445
C         -5.22659        1.69984        1.30951
C         -3.83397       -0.38955        1.85809
H         -3.35401        3.88330        2.26298
H         -5.41900        1.61066        2.38758
H         -6.14204        1.33967        0.81586
H         -2.95130       -0.96497        1.57246
H         -3.69360       -0.06522        2.89086
H         -4.69593       -1.06024        1.83382
C         -1.20215       -3.83715       -0.10691
C         -0.98571       -3.34600        1.20626
C         -0.56833       -2.03432        1.35651
C         -0.43008       -1.20994        0.27152
C         -0.72640       -1.65297       -0.98933
C         -1.16247       -2.94693       -1.21032
O         -1.41731       -5.22481       -0.31932
C         -1.15814       -4.22360        2.45540
H         -0.33312       -1.63894        2.32880
H         -0.59474       -0.96621       -1.80721
C         -1.55986       -3.36063       -2.63534
C          4.56039        0.66865       -0.58083
C          3.96154       -0.57190       -0.24389
C          2.61212       -0.58301        0.06416
C          1.88558        0.57787        0.11318
C          2.48178        1.79095       -0.10778
C          3.82904        1.87432       -0.42177
O          5.87748        0.69973       -1.11151
C          4.73309       -1.90091       -0.24637
H          2.10087       -1.51055        0.25579
H          1.87175        2.67571       -0.04671
C          4.46477        3.25866       -0.62462
C         -1.55002       -3.36467        3.67956
C         -2.28146       -5.25687        2.25490
C          0.16886       -4.93488        2.76094
C         -2.15326       -2.15549       -3.40206
C         -0.31454       -3.85654       -3.38554
C         -2.64215       -4.45501       -2.61625
C         -0.22660       -5.96259       -0.56544
H         -0.73906       -2.70654        3.98794
H         -2.42491       -2.75318        3.46104
H         -1.79010       -3.99699        4.53403
H         -2.04005       -5.95545        1.45758
H         -2.44676       -5.83716        3.16232
H         -3.21605       -4.76148        1.99375
H          0.08319       -5.55550        3.65252
H          0.47277       -5.57363        1.93515
H          0.96484       -4.20965        2.92903
H         -1.40129       -1.39482       -3.60579
H         -2.55799       -2.46956       -4.36375
H         -2.96034       -1.69380       -2.83379
H          0.12813       -4.71711       -2.88942
H         -0.56313       -4.14647       -4.40608
H          0.44345       -3.07485       -3.43160
H         -3.51184       -4.12395       -2.04962
H         -2.96873       -4.70097       -3.62635
H         -2.27470       -5.36949       -2.15772
H         -0.13000       -6.75643        0.17510
H         -0.27679       -6.42216       -1.55233
H          0.64463       -5.30828       -0.51313
C          5.93290        0.59246       -2.52856
C          6.20689       -1.68822        0.14342
C          4.13121       -2.88314        0.78557
C          4.63807       -2.53976       -1.64036
C          5.94813        3.25577       -0.21227
C          4.32435        3.66936       -2.09830
C          3.75792        4.31785        0.25144
H          6.72386       -1.06560       -0.58235
H          6.28000       -1.19952        1.11440
H          6.73818       -2.63793        0.20060
H          4.75321       -3.77287        0.88099
H          4.06019       -2.41771        1.76832
H          3.13760       -3.21938        0.49241
H          5.06790       -1.89270       -2.40113
H          5.16650       -3.49228       -1.67037
H          3.59789       -2.72186       -1.91007
H          6.53445        2.59188       -0.84247
H          6.37962        4.25306       -0.29414
H          6.05899        2.92167        0.81878
H          3.27509        3.69875       -2.39118
H          4.75173        4.65667       -2.27134
H          4.83003        2.96472       -2.75394
H          2.73807        4.50234       -0.08268
H          4.28536        5.27049        0.20741
H          3.72662        4.00062        1.29348
H          6.43105        1.46905       -2.94240
H          6.50978       -0.28927       -2.80695
H          4.92702        0.51547       -2.94338
