87
-129.18886976
P         -1.64675       -0.37140       -0.21482
P          1.62844        0.37251       -0.08301
C         -1.36600        0.92090       -1.44149
C          1.43330       -0.68716       -1.52550
C         -0.36094        0.81965       -2.39927
C         -0.14286        1.90370       -3.27198
C         -0.94583        3.02694       -3.17250
C         -1.94436        3.10425       -2.22628
C         -2.14632        2.04906       -1.35907
C          2.22520       -1.80587       -1.61908
C          2.08380       -2.67242       -2.68472
C          1.13779       -2.41388       -3.65313
C          0.32589       -1.29479       -3.57776
C          0.47976       -0.40355       -2.49752
Cl         1.24504        0.85335        3.04716
Cl        -1.46059       -1.00483        2.94816
H         -2.55920        3.98667       -2.15740
H         -2.92006        2.10754       -0.61198
H          2.95919       -2.00418       -0.85595
H          2.70520       -3.55017       -2.75441
H         -0.77623        3.85107       -3.84454
H          1.01696       -3.09116       -4.48152
C         -1.39316       -4.56726       -1.93693
C         -0.64275       -4.24613       -0.81408
C         -0.74572       -2.96197       -0.29423
C         -1.57220       -2.03338       -0.88363
C         -2.32320       -2.36295       -1.98724
C         -2.23422       -3.63731       -2.51628
H         -1.31076       -5.55514       -2.35707
C          0.29365       -5.23014       -0.20654
H         -0.16951       -2.68994        0.57355
H         -2.95955       -1.61804       -2.43866
H         -2.81318       -3.90060       -3.38626
C         -5.56741        0.38204        1.97812
C         -5.45942       -0.68897        1.11321
C         -4.26969       -0.92230        0.44963
C         -3.19987       -0.08196        0.65111
C         -3.30468        0.98414        1.51488
C         -4.48948        1.22825        2.19840
H         -6.49374        0.56660        2.49494
H         -6.30074       -1.34410        0.95687
H         -4.16950       -1.75930       -0.22150
H         -2.45514        1.62778        1.67459
C         -4.59805        2.38978        3.12243
C          5.21443       -0.99693        2.36954
C          5.25192        0.22310        1.72363
C          4.16588        0.64298        0.97908
C          3.05456       -0.16081        0.88166
C          3.01312       -1.37478        1.52840
C          4.09184       -1.80922        2.28861
H          6.06032       -1.32707        2.94812
H          6.12569        0.84912        1.80160
H          4.17782        1.59676        0.47781
H          2.13343       -1.99215        1.45045
C          4.04675       -3.13123        2.97051
C          1.84969        4.76495       -1.21306
C          2.69405        3.85588       -1.82007
C          2.63826        2.52018       -1.46717
C          1.74155        2.10948       -0.50909
C          0.90837        3.01377        0.10734
C          0.95061        4.35939       -0.23626
H          1.88100        5.80299       -1.49721
H          3.38902        4.18458       -2.57528
H          3.27584        1.79271       -1.94473
H          0.21320        2.67443        0.85652
C          0.01374        5.32821        0.39425
Pd        -0.06158       -0.06433        1.46863
C          0.93332        1.87023       -4.30122
C         -0.69065       -1.06088       -4.64088
H          0.51666        1.69745       -5.29419
H          1.47655        2.81590       -4.32599
H          1.65818        1.08158       -4.09678
H         -1.22921       -1.98080       -4.87264
H         -1.42770       -0.31834       -4.33328
H         -0.21903       -0.70864       -5.55904
H          0.35156       -5.09931        0.87508
H         -0.02841       -6.25420       -0.40037
H          1.29855       -5.10914       -0.61368
H         -5.40388        2.24781        3.84385
H         -3.67266        2.52908        3.68335
H         -4.79844        3.30822        2.56889
H          4.31188       -3.93292        2.27975
H          4.74088       -3.16655        3.81129
H          3.04758       -3.33650        3.35768
H         -0.22869        5.03124        1.41569
H          0.44779        6.32822        0.43364
H         -0.91865        5.38647       -0.16911
