59
-75.79743796
Cl         1.72716        0.43911        2.31714
P          1.60054       -0.01090       -0.87406
P         -1.57859       -0.04425       -0.76910
C          0.60490       -0.04025       -2.42813
H          0.38186        0.98878       -2.71805
H          1.21120       -0.47824       -3.22706
C         -0.66001       -0.81340       -2.17725
H         -0.43409       -1.84944       -1.91205
H         -1.31547       -0.83156       -3.05349
C          2.69449       -1.50468       -0.79833
H          2.63589       -1.98211       -1.78397
C          2.88376        1.32179       -0.78630
H          2.86897        1.68402        0.24917
C         -3.14510       -0.94252       -0.36171
H         -3.25808       -0.85358        0.72592
C         -2.31078        1.54700       -1.35692
H         -1.68213        1.87589       -2.19500
C          4.09702       -0.91321       -0.56691
H          4.32159       -0.94838        0.50793
H          4.86325       -1.53864       -1.04945
C          4.18973        0.55637       -1.06081
H          4.38776        0.56998       -2.14162
H          5.04268        1.07509       -0.59687
C         -4.24747       -0.13539       -1.08905
H         -4.78227       -0.80280       -1.77941
H         -5.01001        0.18669       -0.36530
C         -3.69427        1.09803       -1.86691
H         -4.39955        1.94051       -1.81433
H         -3.62264        0.84746       -2.93650
C          2.23668       -2.47328        0.28471
H          1.17696       -2.71373        0.12702
H          2.27450       -1.96160        1.25562
C          2.61663        2.47733       -1.74297
H          3.50859        3.11749       -1.79118
H          2.49457        2.07755       -2.75796
C         -3.08641       -2.41662       -0.74146
H         -4.09204       -2.85182       -0.65592
H         -2.82583       -2.50017       -1.80447
C         -2.33726        2.62775       -0.27551
H         -1.31430        2.78817        0.09106
H         -2.63441        3.58259       -0.73181
C          3.06008       -3.75162        0.32987
H          4.11174       -3.53966        0.53057
H          3.01495       -4.28284       -0.62274
H          2.71032       -4.43658        1.10565
C          1.40538        3.30478       -1.34248
H          0.50798        2.68888       -1.28671
H          1.20671        4.11373       -2.04911
H          1.54297        3.75412       -0.35709
C         -2.10800       -3.20534        0.11589
H         -1.10266       -2.78846        0.05541
H         -2.04932       -4.25402       -0.18406
H         -2.39676       -3.17900        1.16836
C         -3.25203        2.32467        0.90008
H         -2.98335        1.38353        1.37859
H         -3.20403        3.10207        1.66609
H         -4.29403        2.24335        0.58756
Cl        -1.51883       -0.11963        2.42562
Pd         0.07275        0.05130        0.85596
