171
-217.83783834
P         -1.65305        0.75766        0.27895
P          1.48568       -0.28664       -0.27286
C         -0.84741        1.83196       -0.93014
C          0.57317       -0.94175       -1.68350
C         -0.22417        1.37797       -2.08669
C          0.45473        2.30606       -2.89866
C          0.46566        3.64303       -2.53904
C         -0.15874        4.07553       -1.38907
C         -0.80771        3.16156       -0.58154
C          0.65885       -2.27058       -2.02118
C         -0.04525       -2.75773       -3.10493
C         -0.84997       -1.90997       -3.83706
C         -0.96224       -0.56949       -3.50674
C         -0.21214       -0.06812       -2.42553
Cl         2.22197        1.08032        2.58013
Cl        -0.91565        0.61227        3.48662
C         -1.85100        0.32093       -4.30299
C          1.17960        1.88349       -4.12875
H         -0.13350        5.11769       -1.11564
H         -1.28103        3.48108        0.33527
H          1.27279       -2.93223       -1.43466
H          0.03043       -3.79775       -3.37684
H          0.98296        4.34716       -3.16877
H         -1.39858       -2.28789       -4.68292
C         -3.01779       -3.38741       -0.94421
C         -1.94408       -3.29126       -0.06783
C         -1.51833       -2.02073        0.30190
C         -2.13324       -0.90404       -0.21618
C         -3.19327       -1.02170       -1.08128
C         -3.66438       -2.27216       -1.45903
H         -3.37343       -4.36250       -1.22176
H         -0.70069       -1.89598        0.98844
H         -3.66097       -0.12581       -1.44957
C         -5.50677        2.80846        1.50087
C         -4.71417        2.25137        2.49782
C         -3.52803        1.64243        2.11580
C         -3.15256        1.60032        0.79829
C         -3.94332        2.16197       -0.17430
C         -5.14370        2.77724        0.15978
H         -6.43359        3.28048        1.76758
H         -2.87908        1.20535        2.85259
H         -3.61072        2.11926       -1.19764
C          3.78587       -3.68130        1.72155
C          3.98693       -3.40805        0.37542
C          3.27156       -2.35925       -0.18912
C          2.37207       -1.63441        0.55504
C          2.19054       -1.92757        1.88658
C          2.90190       -2.94858        2.50102
H          4.34144       -4.47975        2.17799
H          3.41141       -2.10395       -1.22401
H          1.49835       -1.34648        2.46485
C          4.52291        2.66918       -1.87371
C          3.76353        3.03221       -0.76883
C          2.85078        2.10888       -0.27764
C          2.69995        0.88587       -0.88020
C          3.44046        0.55408       -1.98856
C          4.37498        1.44223       -2.50830
H          5.25926        3.35919       -2.24190
H          2.25395        2.33558        0.58669
H          3.26562       -0.39595       -2.46197
Pd         0.27300        0.59021        1.58011
C         -0.89751       -5.50579       -0.65773
C         -1.31253       -4.57282        0.49595
C         -2.34198       -5.28374        1.39222
C         -0.05909       -4.26896        1.33392
H         -0.43949       -6.41734       -0.27407
H         -1.75227       -5.79627       -1.26674
H         -0.17264       -5.01655       -1.30649
H         -3.23212       -5.55875        0.82733
H         -1.92327       -6.19324        1.82272
H         -2.65244       -4.63418        2.21047
H          0.68875       -3.74850        0.73820
H         -0.30288       -3.65494        2.20012
H          0.39396       -5.19108        1.69668
C         -5.48422       -1.08352       -2.78319
C         -4.87819       -2.44366       -2.38334
C         -5.96181       -3.25819       -1.65221
C         -4.44671       -3.18432       -3.66113
H         -6.34985       -1.22062       -3.43105
H         -5.81385       -0.52891       -1.90478
H         -4.76167       -0.47420       -3.32476
H         -6.25853       -2.76094       -0.72888
H         -6.84944       -3.37292       -2.27414
H         -5.60463       -4.25482       -1.39596
H         -3.68820       -2.61576       -4.19697
H         -4.02965       -4.16367       -3.42931
H         -5.29310       -3.33080       -4.33194
C         -5.21383        0.83977        4.50796
C         -5.09656        2.28334        3.98431
C         -6.44206        2.99815        4.21288
C         -4.00452        3.03146        4.77180
H         -5.96406        0.28560        3.94428
H         -4.26731        0.30812        4.41738
H         -5.50306        0.82799        5.55862
H         -7.25026        2.49069        3.68650
H         -6.69698        3.01247        5.27251
H         -6.40030        4.03185        3.87009
H         -3.04041        2.53195        4.68376
H         -3.88919        4.04868        4.39824
H         -4.25535        3.08645        5.83089
C         -5.46921        3.26225       -2.31765
C         -6.06442        3.39585       -0.90158
C         -6.26181        4.89186       -0.59576
C         -7.42441        2.67443       -0.87539
H         -5.33062        2.21579       -2.58861
H         -6.13134        3.70892       -3.05924
H         -4.50638        3.76816       -2.38800
H         -6.73159        5.03961        0.37590
H         -5.30407        5.41194       -0.58711
H         -6.89533        5.36324       -1.34695
H         -7.29866        1.60929       -1.06891
H         -7.91163        2.78293        0.09289
H         -8.09515        3.07842       -1.63349
C          6.35493       -4.22649        0.20845
C          4.96080       -4.26548       -0.44457
C          5.09014       -3.75215       -1.89248
C          4.44170       -5.71422       -0.48251
H          6.72025       -3.20170        0.27288
H          6.33431       -4.63875        1.21642
H          7.07339       -4.80511       -0.37197
H          5.45596       -2.72572       -1.91131
H          5.79302       -4.36334       -2.45844
H          4.13194       -3.78883       -2.41060
H          4.37495       -6.13564        0.51998
H          3.44791       -5.75482       -0.92852
H          5.10269       -6.35103       -1.07016
C          1.70522       -2.34743        4.66861
C          2.78160       -3.23163        4.00622
C          4.13527       -2.93361        4.67605
C          2.40547       -4.70710        4.23429
H          1.62235       -2.57048        5.73206
H          1.95145       -1.28999        4.57425
H          0.72657       -2.51453        4.21968
H          4.42316       -1.89518        4.51295
H          4.08625       -3.10627        5.75098
H          4.92365       -3.56679        4.27048
H          3.15205       -5.37892        3.81291
H          2.32470       -4.92691        5.29872
H          1.44658       -4.93791        3.77268
C          2.98145        4.62302        1.05612
C          3.95758        4.40849       -0.11802
C          3.70547        5.50855       -1.16545
C          5.39692        4.51686        0.41623
H          3.14378        3.88544        1.84176
H          3.11821        5.60977        1.49801
H          1.94621        4.55059        0.72352
H          4.40226        5.43073       -1.99909
H          2.69497        5.43345       -1.56572
H          3.82093        6.49919       -0.72608
H          5.59558        3.73167        1.14546
H          6.12555        4.41891       -0.38770
H          5.56186        5.47864        0.90156
C          4.75878       -0.19014       -4.42168
C          5.27512        1.06828       -3.69531
C          6.69316        0.78951       -3.16770
C          5.32193        2.22299       -4.71534
H          4.79070       -1.06386       -3.77180
H          3.73323       -0.05140       -4.76312
H          5.37261       -0.41214       -5.29451
H          7.10500        1.66835       -2.67223
H          6.68156       -0.02638       -2.44505
H          7.36594        0.51353       -3.97948
H          4.32182        2.46950       -5.06956
H          5.75811        3.12278       -4.28418
H          5.92509        1.95031       -5.58125
H         -2.21075        1.15793       -3.70238
H          2.17794        2.32131       -4.15422
H         -2.72411       -0.22083       -4.66916
H         -1.32396        0.72639       -5.16749
H          0.64889        2.20673       -5.02536
H          1.29523        0.80009       -4.17531
