87
-129.17910714
P         -1.69202       -0.37499        0.15612
P          1.58504        0.33676       -0.20668
C         -1.43620        0.88566       -1.12078
C          1.27853       -0.75467       -1.59927
C         -0.56855        0.78927       -2.20678
C         -0.39410        1.91412       -3.03581
C         -1.10996        3.06984       -2.77550
C         -1.97079        3.14569       -1.70293
C         -2.12201        2.05227       -0.87191
C          2.08645       -1.84017       -1.83317
C          1.85435       -2.64789       -2.92919
C          0.81035       -2.35999       -3.78437
C         -0.01791       -1.27162       -3.56312
C          0.22903       -0.44048       -2.45223
Cl         1.38074        1.81496        2.70156
Cl        -1.19281       -0.02054        3.35466
H         -2.51190        4.05609       -1.50381
H         -2.77066        2.10837       -0.01007
H          2.90606       -2.04901       -1.16611
H          2.48581       -3.50135       -3.11407
H         -0.97340        3.92397       -3.41698
H          0.62646       -2.98892       -4.63882
C         -0.37929       -4.67551       -0.52046
C         -1.14133       -4.04821       -1.49606
C         -1.54046       -2.73307       -1.28434
C         -1.17659       -2.07174       -0.13535
C         -0.45931       -2.71699        0.84551
C         -0.04616       -4.02036        0.64825
H         -0.05987       -5.69131       -0.68013
C         -1.51104       -4.77177       -2.74302
H         -2.13059       -2.22182       -2.02567
H         -0.26311       -2.20988        1.77715
H          0.52110       -4.52848        1.41087
C         -6.15104       -0.43536        1.06479
C         -5.70126       -0.53709       -0.23706
C         -4.34393       -0.52017       -0.50143
C         -3.44986       -0.39755        0.53691
C         -3.89742       -0.29813        1.83218
C         -5.25556       -0.32229        2.11909
H         -7.20746       -0.44191        1.27292
H         -6.40641       -0.62713       -1.04704
H         -3.97647       -0.59254       -1.51319
H         -3.18218       -0.19853        2.62877
C         -5.73631       -0.18630        3.52113
C          4.89442       -1.38100        2.41235
C          5.01561       -0.10229        1.90503
C          4.01884        0.41831        1.10147
C          2.91046       -0.34184        0.81118
C          2.78600       -1.61309        1.32032
C          3.78025       -2.15680        2.12303
H          5.66654       -1.78568        3.04423
H          5.88310        0.49241        2.13996
H          4.09437        1.41929        0.70910
H          1.90876       -2.19249        1.09256
C          3.62389       -3.52680        2.68297
C          2.76571        4.40893       -1.83836
C          3.39868        3.26961       -2.29550
C          3.04478        2.03328       -1.78749
C          2.06956        1.95064       -0.82156
C          1.44357        3.08377       -0.35766
C          1.77397        4.33202       -0.87010
H          3.03902        5.37270       -2.23292
H          4.16342        3.34227       -3.05131
H          3.51610        1.13075       -2.14413
H          0.68889        3.00218        0.40597
C          1.09858        5.55651       -0.36180
Pd         0.02614        0.45817        1.53655
C          0.55834        1.89823       -4.18128
C         -1.14230       -1.00005       -4.50040
H          0.02728        1.79098       -5.12778
H          1.13192        2.82536       -4.22139
H          1.27158        1.07763       -4.09797
H         -1.68843       -1.91600       -4.73011
H         -1.85365       -0.29121       -4.07476
H         -0.77396       -0.58580       -5.43968
H         -0.62128       -5.03707       -3.31576
H         -2.05071       -5.69155       -2.51312
H         -2.15043       -4.16158       -3.38229
H         -6.67244       -0.72605        3.67083
H         -5.00668       -0.58616        4.22682
H         -5.90673        0.86157        3.77187
H          3.26923       -4.22136        1.91994
H          4.57034       -3.91006        3.06670
H          2.90299       -3.52935        3.50177
H          1.59814        5.93065        0.53283
H          1.10448        6.35055       -1.10982
H          0.05821        5.35102       -0.10518
