111
-148.55234459
P         -1.68338        2.75274        0.12976
P         -0.55376       -0.17640        0.44179
C         -1.46977        2.04431        1.78592
C         -1.05899        0.73471        1.91958
C         -0.50430        4.14874       -0.15124
C          0.46965        3.80557       -1.25772
C         -1.69866        2.81305        2.90925
H         -1.98222        3.84675        2.79755
C         -1.54130        2.25869        4.16761
H         -1.72372        2.85730        5.04513
C         -1.14689        0.94127        4.29977
H         -1.02038        0.51046        5.27938
C         -0.89535        0.18056        3.17250
H         -0.55658       -0.83867        3.26225
Pd        -1.66400        0.92241       -1.28299
Cl        -2.57741        2.21473       -2.86679
Cl        -1.21744       -0.89694       -2.52832
C         -1.42743        5.34166       -0.47337
C         -3.29440        3.64599       -0.06937
H          1.06920        2.92956       -1.00321
H         -0.06342        3.57730       -2.18299
H          1.15077        4.63516       -1.46125
H         -1.45555        5.47856       -1.56305
H         -1.00239        6.27394       -0.07199
H         -3.62555        3.43723       -1.09507
C         -2.87484        5.12168        0.05193
C         -4.34586        3.19203        0.92097
H          0.01720        4.30529        0.80213
H         -2.93628        5.42421        1.10626
H         -3.58938        5.76720       -0.48149
H         -5.29344        3.71136        0.76101
H         -4.52978        2.11848        0.83777
H         -4.03454        3.39148        1.94656
C         -0.45216       -4.67716        1.13928
C         -1.40577       -4.13293        0.24097
C         -1.44086       -2.75831        0.07404
C         -0.52357       -1.94858        0.69015
C          0.47532       -2.48120        1.46352
C          0.55746       -3.84565        1.68692
O         -0.52413       -6.04588        1.51213
C         -2.39125       -5.00787       -0.55038
H         -2.17832       -2.29877       -0.56033
H          1.19858       -1.80830        1.89189
C          1.71401       -4.39784        2.53477
C          3.56011        1.39754       -0.73414
C          2.84143        0.56287       -1.62720
C          1.59663        0.10366       -1.23521
C          1.09182        0.38896        0.00458
C          1.81955        1.12034        0.90523
C          3.07471        1.60723        0.58215
O          4.74605        2.04826       -1.16797
C          3.35882        0.19780       -3.02662
H          0.97516       -0.45401       -1.91284
H          1.38427        1.32171        1.86794
C          3.86559        2.38498        1.64504
C         -3.68572       -5.17933        0.25820
C         -2.73744       -4.34692       -1.90464
C         -1.77821       -6.38380       -0.86919
C          2.12379       -5.80461        2.06255
C          2.96435       -3.49744        2.40792
C          1.28736       -4.43790        4.00999
C         -1.35747       -6.29788        2.63639
H         -4.40802       -5.78734       -0.28592
H         -3.49298       -5.66132        1.21365
H         -4.14395       -4.21175        0.46151
H         -3.32638       -3.44062       -1.77312
H         -1.83160       -4.08896       -2.45266
H         -3.32459       -5.02205       -2.52663
H         -2.44973       -6.97852       -1.48789
H         -0.83619       -6.26888       -1.40436
H         -1.57934       -6.94963        0.03752
H          2.38496       -5.79324        1.00490
H          2.98504       -6.17023        2.62116
H          1.31612       -6.51952        2.19902
H          3.22460       -3.34005        1.36147
H          2.81033       -2.52508        2.87364
H          3.82192       -3.95487        2.90082
H          0.42055       -5.07879        4.15205
H          2.09248       -4.81613        4.63942
H          1.02334       -3.44082        4.36189
H         -2.15902       -6.97950        2.35237
H         -0.77278       -6.77059        3.42538
H         -1.78600       -5.36671        3.00918
C          4.53217        3.32985       -1.74709
C          2.80150       -1.17339       -3.47378
C          2.89349        1.26394       -4.03049
C          4.89364        0.08360       -3.04002
C          5.38128        2.18301        1.46761
C          3.51177        3.87695        1.54912
C          3.50897        1.88559        3.06421
H          1.72801       -1.13403       -3.65243
H          3.26782       -1.49558       -4.40448
H          2.99643       -1.93573       -2.71998
H          3.23124        1.02518       -5.03855
H          1.80564        1.32914       -4.04533
H          3.27936        2.24664       -3.77069
H          5.23024       -0.64364       -2.30191
H          5.25434       -0.23366       -4.01814
H          5.36533        1.03514       -2.80873
H          5.63228        1.12312        1.49321
H          5.72746        2.58415        0.51854
H          5.93871        2.68303        2.25927
H          3.75514        4.27865        0.56854
H          2.44570        4.03079        1.71428
H          4.05559        4.45600        2.29500
H          3.62302        0.80408        3.13463
H          2.48634        2.14180        3.33749
H          4.16150        2.34012        3.80933
H          5.07242        4.08474       -1.17612
H          4.91407        3.33869       -2.76783
H          3.46948        3.57233       -1.75538
