171
-217.83700398
P         -1.50822        0.20050       -0.18359
P          1.70802       -0.70045        0.23610
C         -0.71141        0.74638       -1.70570
C          0.85663       -1.90454       -0.80692
C          0.05011       -0.17162       -2.41848
C          0.70595        0.24650       -3.59238
C          0.52463        1.54622       -4.03587
C         -0.25733        2.43627       -3.32958
C         -0.86803        2.03399       -2.15792
C          0.89325       -3.19653       -0.33775
C          0.22269       -4.20106       -1.00806
C         -0.50121       -3.89619       -2.14043
C         -0.56453       -2.59909       -2.62074
C          0.13568       -1.57877       -1.94974
Cl         1.18428       -0.32084        3.43356
Cl        -1.96820       -0.93638        2.85513
C         -1.38701       -2.31770       -3.82933
C          1.56708       -0.69048       -4.36522
H         -0.38846        3.44314       -3.69058
H         -1.46578        2.72915       -1.59367
H          1.44406       -3.41471        0.56545
H          0.25880       -5.21393       -0.64158
H          1.00025        1.85794       -4.95012
H         -1.03863       -4.67122       -2.66064
C         -4.67299       -2.83877       -1.32145
C         -3.89889       -3.08103       -0.19278
C         -2.93968       -2.13935        0.15011
C         -2.75498       -1.01593       -0.61366
C         -3.51558       -0.80111       -1.73724
C         -4.49845       -1.70977       -2.11262
H         -5.44521       -3.53548       -1.58714
H         -2.34597       -2.27264        1.03624
H         -3.32389        0.07599       -2.33053
C         -3.77617        3.69431        1.66908
C         -4.06814        3.28718        0.37438
C         -3.35430        2.21497       -0.14631
C         -2.37026        1.59694        0.58704
C         -2.10039        2.02049        1.86756
C         -2.80522        3.07020        2.43978
H         -4.33018        4.51119        2.09374
H         -3.56575        1.85246       -1.13628
H         -1.34463        1.51920        2.44091
C          5.72207       -2.50728        1.31160
C          5.24728       -2.62060        0.01104
C          4.00051       -2.07698       -0.27272
C          3.27423       -1.44601        0.70800
C          3.75999       -1.34559        1.98639
C          4.99808       -1.87892        2.31711
H          6.68529       -2.92061        1.54838
H          3.58136       -2.14449       -1.26242
H          3.15241       -0.85758        2.72536
C          2.84016        3.34745       -1.45841
C          1.83403        3.30494       -0.50126
C          1.47790        2.06369        0.01346
C          2.09222        0.92044       -0.44361
C          3.08443        0.98505       -1.39085
C          3.48587        2.20666       -1.91490
H          3.14357        4.30149       -1.84836
H          0.71537        1.98201        0.76661
H          3.55550        0.07159       -1.70809
Pd        -0.14308       -0.46496        1.63639
C         -2.75059       -5.10125        0.74496
C         -4.07756       -4.32159        0.69298
C         -5.17326       -5.25827        0.14978
C         -4.47161       -3.87543        2.11342
H         -2.44787       -5.40995       -0.25525
H         -1.94989       -4.49315        1.16437
H         -2.84663       -5.99571        1.36000
H         -4.93134       -5.60217       -0.85575
H         -5.27799       -6.13880        0.78358
H         -6.14023       -4.75642        0.12138
H         -3.69995       -3.24965        2.56021
H         -5.39677       -3.29998        2.09306
H         -4.62211       -4.73558        2.76538
C         -6.82818       -1.10548       -2.78018
C         -5.42576       -1.45266       -3.31001
C         -5.50720       -2.70781       -4.20060
C         -4.92099       -0.28146       -4.17675
H         -6.79146       -0.22085       -2.14455
H         -7.51791       -0.90505       -3.59986
H         -7.23672       -1.92448       -2.18886
H         -4.52002       -2.99380       -4.56112
H         -5.92741       -3.55581       -3.66194
H         -6.13975       -2.52562       -5.06929
H         -4.92066        0.65345       -3.61735
H         -3.90979       -0.46831       -4.53719
H         -5.56229       -0.13980       -5.04656
C         -6.48368        3.96677        0.32134
C         -5.14462        4.02106       -0.43708
C         -5.34685        3.37983       -1.82446
C         -4.71379        5.48596       -0.63288
H         -7.27344        4.45855       -0.24636
H         -6.78534        2.93387        0.49441
H         -6.41304        4.46155        1.28916
H         -6.11777        3.90732       -2.38600
H         -4.42958        3.41557       -2.41209
H         -5.65960        2.33992       -1.73232
H         -5.44982        6.03450       -1.22037
H         -4.60192        5.99583        0.32339
H         -3.75759        5.53899       -1.15350
C         -3.87198        3.22154        4.69634
C         -2.58453        3.49789        3.89873
C         -2.25033        4.99953        3.96015
C         -1.42841        2.71488        4.55406
H         -4.13116        2.16389        4.65121
H         -3.74939        3.49538        5.74405
H         -4.71224        3.78903        4.29779
H         -1.33779        5.21592        3.40673
H         -3.05153        5.60411        3.53721
H         -2.10002        5.32184        4.99038
H         -1.63951        1.64591        4.57603
H         -0.49286        2.87027        4.01760
H         -1.27600        3.03955        5.58310
C          7.42974       -2.55989       -1.22054
C          6.09750       -3.31529       -1.06169
C          5.38281       -3.33568       -2.42775
C          6.37019       -4.76855       -0.63268
H          7.25247       -1.52234       -1.50305
H          7.99860       -2.56072       -0.29149
H          8.04895       -3.01858       -1.99126
H          4.43580       -3.87182       -2.36727
H          5.18556       -2.32451       -2.78317
H          5.99653       -3.83410       -3.17795
H          6.92248       -4.80800        0.30545
H          5.43468       -5.31007       -0.49334
H          6.95591       -5.29449       -1.38645
C          4.61138       -1.06365        4.69699
C          5.57493       -1.78952        3.73713
C          6.90257       -1.01082        3.69781
C          5.82047       -3.21052        4.27673
H          4.42045       -0.04357        4.36453
H          3.65815       -1.58720        4.76667
H          5.03220       -1.00984        5.70085
H          7.63815       -1.51319        3.07070
H          6.74894       -0.00927        3.29642
H          7.32728       -0.91296        4.69674
H          6.21140       -3.17953        5.29360
H          4.89283       -3.78244        4.28882
H          6.53831       -3.75027        3.66025
C          0.68100        5.42886       -1.21339
C          1.20174        4.61650       -0.01228
C          2.26632        5.43232        0.74241
C          0.01752        4.35940        0.93489
H         -0.06901        4.86335       -1.76422
H          0.22014        6.35931       -0.88208
H          1.48354        5.68500       -1.90346
H          3.10788        5.67559        0.09458
H          1.84953        6.36720        1.11672
H          2.65056        4.86903        1.59265
H         -0.75159        3.76708        0.44224
H          0.33828        3.83461        1.83401
H         -0.43934        5.29918        1.24353
C          5.24432        0.94710       -3.25617
C          4.62685        2.32297       -2.93552
C          5.73334        3.22565       -2.35847
C          4.08583        2.93475       -4.23956
H          5.65154        0.48247       -2.35834
H          4.50424        0.27415       -3.68756
H          6.05778        1.04553       -3.97480
H          6.10769        2.82101       -1.41826
H          6.57222        3.30473       -3.04974
H          5.36479        4.23256       -2.16652
H          3.30878        2.30272       -4.66680
H          3.65749        3.92130       -4.06621
H          4.87879        3.03921       -4.97989
H         -1.51952       -1.24671       -3.98575
H          2.38437       -0.15987       -4.85555
H         -2.37819       -2.76060       -3.72831
H         -0.92261       -2.73549       -4.72372
H          0.99166       -1.20250       -5.13741
H          2.00875       -1.44696       -3.71454
