171
-217.83517123
P         -1.52306        0.13249       -0.04680
P          1.76550       -0.53607       -0.12951
C         -0.83932        1.36334       -1.18097
C          0.95397       -1.24963       -1.58120
C         -0.07621        0.91799       -2.25311
C          0.49647        1.85800       -3.13092
C          0.24876        3.20545       -2.92644
C         -0.51784        3.63167       -1.86229
C         -1.05297        2.70681       -0.98748
C          1.12509       -2.60626       -1.72613
C          0.49559       -3.28290       -2.75315
C         -0.32278       -2.59248       -3.62114
C         -0.52433       -1.22972       -3.48238
C          0.13592       -0.53737       -2.45007
Cl         1.41797       -1.76195        2.86869
Cl        -1.65944       -2.38666        2.14892
C         -1.45765       -0.53955       -4.41495
C          1.34823        1.41545       -4.26965
H         -0.69067        4.68433       -1.70886
H         -1.61822        3.04004       -0.13524
H          1.74832       -3.13751       -1.02188
H          0.63540       -4.34544       -2.86706
H          0.66751        3.92548       -3.60878
H         -0.82696       -3.11447       -4.41691
C         -4.39337       -2.46922       -2.39226
C         -3.46636       -3.08831       -1.56355
C         -2.60306       -2.27901       -0.83804
C         -2.66193       -0.91357       -0.95411
C         -3.57245       -0.31848       -1.79242
C         -4.46183       -1.08867       -2.53282
H         -5.09120       -3.08168       -2.93245
H         -1.88518       -2.70934       -0.16433
H         -3.57170        0.75392       -1.87808
C         -4.00769        2.22924        3.15578
C         -3.10257        1.25503        3.55731
C         -2.34446        0.63056        2.57778
C         -2.48808        0.95230        1.24901
C         -3.41998        1.88942        0.87330
C         -4.18284        2.56266        1.81837
H         -4.59825        2.72906        3.89903
H         -1.66063       -0.14489        2.86641
H         -3.55962        2.10286       -0.17234
C          2.40678        3.93028        0.34394
C          3.14021        3.22818       -0.60423
C          2.88655        1.87004       -0.74063
C          1.94490        1.24813        0.04161
C          1.24114        1.95618        0.98892
C          1.45150        3.32084        1.14787
H          2.59344        4.97872        0.48009
H          3.45112        1.28349       -1.44480
H          0.52350        1.44087        1.60082
C          5.99430       -2.17157       -0.07589
C          5.28319       -2.14701        1.11891
C          3.98334       -1.66336        1.09028
C          3.42237       -1.22712       -0.08152
C          4.13663       -1.26032       -1.25375
C          5.44159       -1.73517       -1.27501
H          7.00159       -2.54088       -0.07288
H          3.39194       -1.63962        1.98727
H          3.66892       -0.91543       -2.16136
Pd        -0.01164       -1.15455        1.25171
C         -3.19807       -5.22650       -2.84830
C         -3.43083       -4.61867       -1.45296
C         -4.77208       -5.11558       -0.88462
C         -2.29772       -5.09358       -0.52124
H         -3.99740       -4.95719       -3.53754
H         -2.25845       -4.87138       -3.27005
H         -3.15445       -6.31428       -2.79736
H         -4.77259       -6.20005       -0.77660
H         -4.95889       -4.67806        0.09592
H         -5.60226       -4.84417       -1.53573
H         -2.27275       -6.18164       -0.46533
H         -1.32603       -4.75894       -0.88364
H         -2.43697       -4.71542        0.49128
C         -6.90093       -0.58913       -2.72553
C         -5.53742       -0.45068       -3.42434
C         -5.58461       -1.15738       -4.79346
C         -5.25331        1.04505       -3.66930
H         -7.69486       -0.14241       -3.32378
H         -7.15082       -1.63707       -2.56169
H         -6.88817       -0.09323       -1.75498
H         -4.61552       -1.10990       -5.28870
H         -5.86222       -2.20575       -4.69551
H         -6.31743       -0.68525       -5.44769
H         -5.30097        1.61458       -2.74191
H         -4.26769        1.18820       -4.11177
H         -5.98905        1.47200       -4.35070
C         -3.85149        1.62551        5.96326
C         -2.95438        0.80362        5.01837
C         -1.49163        0.97081        5.47032
C         -3.35714       -0.67946        5.12446
H         -3.60045        2.68517        5.91831
H         -4.90420        1.50728        5.70731
H         -3.72574        1.29982        6.99579
H         -1.18926        2.01599        5.41867
H         -1.36280        0.63687        6.49964
H         -0.81268        0.39004        4.84710
H         -2.71336       -1.30858        4.51080
H         -3.28501       -1.03168        6.15315
H         -4.38336       -0.82451        4.78788
C         -4.41960        4.72182        0.56748
C         -5.17854        3.63324        1.35055
C         -5.89957        4.30075        2.53723
C         -6.23411        2.97895        0.44006
H         -3.94534        4.31264       -0.32377
H         -5.09490        5.51564        0.24887
H         -3.64088        5.16829        1.18576
H         -6.59283        5.06563        2.18741
H         -6.47495        3.57191        3.10769
H         -5.18773        4.78236        3.20749
H         -5.77457        2.53365       -0.44126
H         -6.76651        2.19103        0.97244
H         -6.96562        3.71196        0.10044
C          4.03289        3.60013       -2.92643
C          4.26331        3.87288       -1.42918
C          5.60857        3.26206       -0.99598
C          4.32094        5.39820       -1.21982
H          4.03222        2.53251       -3.14105
H          3.07694        4.01159       -3.24737
H          4.81555        4.05820       -3.53096
H          5.61888        2.18412       -1.15347
H          6.43458        3.69233       -1.56192
H          5.79134        3.44503        0.06270
H          3.37464        5.86562       -1.49196
H          4.54412        5.64553       -0.18222
H          5.10066        5.84385       -1.83744
C          1.73158        4.64239        3.25519
C          0.71455        4.15243        2.20882
C         -0.36541        3.32614        2.92765
C          0.02979        5.36219        1.54483
H          2.23297        3.79812        3.72812
H          2.49478        5.27190        2.79892
H          1.24016        5.22373        4.03518
H         -1.10980        2.96372        2.22126
H          0.07354        2.47041        3.43901
H         -0.88501        3.92831        3.67278
H          0.75368        6.01463        1.05867
H         -0.68635        5.03603        0.79212
H         -0.50917        5.95636        2.28264
C          5.01359       -3.78717        2.99542
C          5.87286       -2.63024        2.45167
C          5.86787       -1.46513        3.45887
C          7.32098       -3.13038        2.28902
H          4.98398       -4.61195        2.28379
H          5.41698       -4.16506        3.93462
H          3.98850       -3.46720        3.17849
H          6.45022       -0.62577        3.07934
H          4.85538       -1.11080        3.64882
H          6.29771       -1.77152        4.41231
H          7.97122       -2.33686        1.92116
H          7.72241       -3.46879        3.24419
H          7.37081       -3.96931        1.59514
C          5.44702       -2.62788       -3.61727
C          6.20906       -1.75240       -2.60457
C          7.63035       -2.32293       -2.43715
C          6.31990       -0.31397       -3.14420
H          5.97769       -2.67681       -4.56793
H          5.33543       -3.64412       -3.23976
H          4.45057       -2.23301       -3.81241
H          8.15831       -2.33090       -3.39069
H          8.21552       -1.72109       -1.74206
H          7.60063       -3.34805       -2.06834
H          6.84404        0.32419       -2.43320
H          6.86857       -0.29143       -4.08558
H          5.33638        0.11956       -3.32188
H         -1.04318       -0.49698       -5.42316
H          0.73684        1.11362       -5.12058
H         -1.66938        0.48021       -4.09147
H         -2.40817       -1.07147       -4.46668
H          1.97240        0.56703       -3.98413
H          2.01002        2.21456       -4.60575
