87
-129.18253658
P         -1.58015       -0.32333       -0.34536
P          1.64576        0.43493        0.20614
C         -1.25126        0.96968       -1.54696
C          1.55075       -0.60794       -1.27166
C         -0.16873        0.83177       -2.40610
C          0.07590        1.84186       -3.35810
C         -0.77734        2.93143       -3.41874
C         -1.84739        3.04754       -2.55642
C         -2.08198        2.06069       -1.61939
C          2.32060       -1.74684       -1.22404
C          2.25005       -2.68691       -2.23325
C          1.38378       -2.49042       -3.28570
C          0.58862       -1.35974       -3.35248
C          0.68321       -0.38519       -2.34011
Cl         1.00478       -0.11185        3.35880
Cl        -1.47515       -1.96472        2.43977
H         -2.49831        3.90454       -2.61309
H         -2.92282        2.13622       -0.95018
H          2.97517       -1.90847       -0.38297
H          2.85717       -3.57619       -2.18841
H         -0.59331        3.69727       -4.15292
H          1.30926       -3.22813       -4.06667
C         -2.31537       -4.23716       -2.52577
C         -1.38334       -4.20011       -1.49764
C         -1.18291       -2.99930       -0.82798
C         -1.89834       -1.87804       -1.17748
C         -2.82559       -1.92356       -2.19177
C         -3.03754       -3.11064       -2.86831
H         -2.46901       -5.15915       -3.06017
C         -0.57575       -5.40051       -1.15032
H         -0.45570       -2.94277       -0.03563
H         -3.36611       -1.02852       -2.45756
H         -3.75860       -3.15318       -3.66806
C         -5.09600        0.86323        2.29720
C         -5.15979       -0.30217        1.55883
C         -4.10186       -0.66233        0.74571
C         -2.99063        0.14427        0.67689
C         -2.92324        1.30318        1.41506
C         -3.98014        1.68610        2.23100
H         -5.91503        1.14088        2.93860
H         -6.03001       -0.93475        1.62169
H         -4.13184       -1.57581        0.17472
H         -2.04227        1.91940        1.35770
C         -3.88823        2.92609        3.04858
C          5.69416       -0.07154        2.22272
C          5.44985        1.02890        1.42504
C          4.21675        1.18090        0.81878
C          3.23783        0.23520        1.01750
C          3.48072       -0.86372        1.80875
C          4.71613       -1.03638        2.42090
H          6.65052       -0.18755        2.70358
H          6.21770        1.77057        1.27741
H          4.01032        2.03624        0.19596
H          2.69939       -1.58787        1.97047
C          4.95915       -2.20644        3.30778
C          0.58730        4.83944       -0.15341
C          0.10363        4.09181        0.90207
C          0.44456        2.75748        1.01055
C          1.24172        2.17716        0.05078
C          1.74718        2.92481       -0.98645
C          1.42811        4.27326       -1.10178
H          0.32219        5.87903       -0.24439
H         -0.52904        4.54920        1.64505
H          0.12956        2.17329        1.86039
H          2.38322        2.45501       -1.71779
C          1.94636        5.08747       -2.23462
Pd        -0.08927       -0.50779        1.44188
C          1.22479        1.75829       -4.30180
C         -0.35868       -1.21071       -4.49259
H          0.88703        1.48265       -5.30151
H          1.73940        2.71724       -4.37569
H          1.95578        1.01719       -3.97638
H          0.17038       -0.93217       -5.40469
H         -0.88573       -2.14670       -4.68303
H         -1.11151       -0.44796       -4.29133
H          0.35233       -5.42078       -1.72342
H         -0.31676       -5.40518       -0.09053
H         -1.12383       -6.31967       -1.36185
H         -3.37315        2.73021        3.99003
H         -3.33655        3.70437        2.51906
H         -4.87821        3.32094        3.28110
H          6.02363       -2.43334        3.38159
H          4.58472       -2.01192        4.31374
H          4.45549       -3.09667        2.92820
H          1.16849        5.25291       -2.98113
H          2.29321        6.06209       -1.88826
H          2.78509        4.59307       -2.72673
