171
-217.84846808
P         -1.64262        0.39957       -0.25357
P          1.61921       -0.39951       -0.25273
C         -0.87790        1.36821       -1.55746
C          0.85910       -1.35079       -1.57035
C         -0.09179        0.75677       -2.52802
C          0.54215        1.56544       -3.49090
C          0.34910        2.93675       -3.45746
C         -0.44484        3.52105       -2.49319
C         -1.05308        2.73014       -1.53865
C          1.03095       -2.71307       -1.56977
C          0.43069       -3.48737       -2.54292
C         -0.35089       -2.88611       -3.50712
C         -0.54032       -1.51389       -3.52146
C          0.08462       -0.72225       -2.53910
Cl         1.57850        0.40817        2.89610
Cl        -1.60787       -0.46358        2.89639
C         -1.38874       -0.90279       -4.58100
C          1.40937        0.97643       -4.54778
H         -0.58927        4.58896       -2.48181
H         -1.66789        3.17680       -0.77384
H          1.63735       -3.17211       -0.80547
H          0.57343       -4.55553       -2.54729
H          0.83469        3.54970       -4.19804
H         -0.82877       -3.48627       -4.26301
C         -3.90383       -3.22722       -1.72656
C         -2.93350       -3.39584       -0.74719
C         -2.24666       -2.26876       -0.31342
C         -2.50741       -1.04171       -0.87010
C         -3.45490       -0.89457       -1.85392
C         -4.18257       -1.99259       -2.29860
H         -4.47623       -4.08141       -2.03772
H         -1.51153       -2.33399        0.46985
H         -3.62812        0.08744       -2.26039
C         -4.48485        2.89553        2.25470
C         -5.00848        1.93621        1.39832
C         -4.11619        1.19310        0.63670
C         -2.76425        1.41800        0.72222
C         -2.26523        2.37753        1.56898
C         -3.12037        3.13069        2.36392
H         -5.15923        3.46744        2.86528
H         -4.47075        0.41961       -0.02010
H         -1.19960        2.51862        1.62169
C          4.48456       -2.90187        2.22743
C          3.12049       -3.13661        2.35141
C          2.25435       -2.38620        1.56499
C          2.74220       -1.42685        0.71196
C          4.09289       -1.20202        0.61368
C          4.99575       -1.93979        1.36544
H          5.15946       -3.47923        2.83085
H          1.18947       -2.52647        1.63146
H          4.45047       -0.43080       -0.04506
C          3.94016        3.19522       -1.70467
C          2.96071        3.38125       -0.73716
C          2.25060        2.26642       -0.30932
C          2.49760        1.03517       -0.86243
C          3.45092        0.87159       -1.83766
C          4.20300        1.95579       -2.27435
H          4.53306        4.03876       -2.00617
H          1.50872        2.34413        0.46639
H          3.61172       -0.11379       -2.24143
Pd        -0.01713        0.00525        1.37156
C         -2.43728       -5.80456       -1.27100
C         -2.68664       -4.78455       -0.14359
C         -3.92238       -5.20326        0.67186
C         -1.45796       -4.78246        0.78503
H         -1.59621       -5.49550       -1.89029
H         -2.21093       -6.78914       -0.86211
H         -3.30809       -5.90777       -1.91686
H         -3.77765       -6.18365        1.12533
H         -4.11715       -4.48662        1.46957
H         -4.81037       -5.25181        0.04232
H         -1.26332       -5.78259        1.17207
H         -0.56744       -4.45268        0.25034
H         -1.61395       -4.12422        1.63939
C         -6.65683       -2.15145       -2.62937
C         -5.31505       -1.86658       -3.32824
C         -5.10578       -2.88323       -4.46727
C         -5.37028       -0.45331       -3.94057
H         -6.82374       -1.44857       -1.81406
H         -7.48844       -2.06187       -3.32807
H         -6.67660       -3.15744       -2.21136
H         -4.14434       -2.73046       -4.95497
H         -5.13376       -3.90754       -4.09829
H         -5.88448       -2.78442       -5.22341
H         -4.42862       -0.19832       -4.42562
H         -6.15789       -0.38767       -4.69109
H         -5.58056        0.29770       -3.17951
C         -7.02432        1.25023        2.71895
C         -6.52510        1.70682        1.33617
C         -6.89311        0.62525        0.30137
C         -7.22431        3.01929        0.93662
H         -8.09721        1.05927        2.70339
H         -6.52177        0.33280        3.02478
H         -6.83058        2.00640        3.47883
H         -7.97257        0.48075        0.25903
H         -6.55843        0.90926       -0.69615
H         -6.44273       -0.33331        0.55865
H         -8.30272        2.87980        0.86291
H         -7.03999        3.80583        1.66736
H         -6.86230        3.36882       -0.03014
C         -3.18479        5.54817        3.03210
C         -2.60232        4.16461        3.37319
C         -1.06533        4.26164        3.34667
C         -3.03713        3.74808        4.79033
H         -2.81715        6.30700        3.72264
H         -2.90264        5.84553        2.02219
H         -4.27266        5.54544        3.08859
H         -0.60588        3.30447        3.59313
H         -0.71604        4.57221        2.36337
H         -0.70969        4.99483        4.07035
H         -2.66232        4.44912        5.53581
H         -4.12236        3.71561        4.87869
H         -2.65208        2.75780        5.03314
C          3.17962       -5.55602        3.01289
C          2.61479       -4.16899        3.36887
C          1.07693       -4.25381        3.37380
C          3.08057       -3.75972        4.77844
H          2.82094       -6.31360        3.70950
H          2.87416       -5.84912        2.00854
H          4.26844       -5.56127        3.04650
H          0.63022       -3.29231        3.62681
H          0.70541       -4.56421        2.39877
H          0.73024       -4.98241        4.10640
H          2.71335       -4.45891        5.52943
H          4.16748       -3.73781        4.84680
H          2.70935       -2.76652        5.03067
C          6.92844       -1.89787       -0.23000
C          6.49704       -1.65022        1.22745
C          7.33951       -2.55308        2.14845
C          6.76538       -0.18051        1.60326
H          6.38960       -1.24723       -0.91743
H          7.99410       -1.70971       -0.35947
H          6.72898       -2.92909       -0.52067
H          7.19212       -3.60571        1.90752
H          8.40161       -2.33496        2.03727
H          7.07864       -2.39767        3.19513
H          7.82790        0.05222        1.53518
H          6.23229        0.50207        0.94238
H          6.43966        0.02076        2.62355
C          3.96427        5.18310        0.67943
C          2.72762        4.77515       -0.14014
C          1.49465        4.79175        0.78286
C          2.49537        5.79233       -1.27365
H          4.85572        5.21968        0.05402
H          3.82833        6.16670        1.12868
H          4.14740        4.46730        1.48066
H          1.63810        4.13425        1.64000
H          1.31090        5.79545        1.16595
H          0.60239        4.47181        0.24509
H          2.28118        6.78210       -0.87080
H          3.36946        5.87988       -1.91743
H          1.65198        5.49120       -1.89381
C          5.22829        2.85733       -4.39355
C          5.35379        1.80041       -3.27899
C          5.35186        0.40464       -3.93336
C          6.68736        1.99282       -2.53467
H          4.26935        2.77344       -4.90309
H          5.30950        3.86852       -3.99746
H          6.01515        2.73208       -5.13723
H          5.51398       -0.37870       -3.19367
H          4.40727        0.20981       -4.44000
H          6.14790        0.32368       -4.67342
H          6.74517        2.98314       -2.08388
H          6.79370        1.25719       -1.73768
H          7.53347        1.88173       -3.21254
H         -0.84234       -0.82630       -5.52201
H          2.31212        1.57225       -4.68298
H         -1.71991        0.09775       -4.29970
H         -2.27860       -1.50575       -4.76017
H          0.88719        0.93952       -5.50482
H          1.71929       -0.03751       -4.29146
