105
-153.06143753
Cl         0.56272        3.73364        1.41358
Pd        -0.08590        1.97165        0.17459
P         -0.73567        0.22554       -1.30889
N          0.10844       -1.20673       -1.92857
C          0.18127       -2.52800       -1.49823
C         -0.15964       -2.97632       -0.19294
C          0.14369       -4.30361        0.18223
C         -0.03108       -4.71575        1.62621
C          0.76169       -5.97407        2.00822
C          0.52755       -7.08587        0.98152
C          0.97368       -6.64189       -0.42124
C          0.65306       -5.20433       -0.75566
C          0.90850       -4.76174       -2.04654
C          0.69692       -3.45540       -2.40315
H          0.94241       -3.12496       -3.39766
H          1.30841       -5.45696       -2.76540
H          2.05608       -6.78551       -0.52356
H          1.04275       -8.00886        1.28293
H          1.83130       -5.73225        2.04479
H          0.25979       -3.87744        2.27204
C         -0.74099       -2.07870        0.84118
C          0.09243       -1.08982        1.42612
C         -0.35934       -0.38798        2.54389
C         -1.60667       -0.63189        3.05735
C         -2.45896       -1.56777        2.47802
C         -3.81267       -1.78240        3.11508
C         -4.76786       -2.70235        2.33221
C         -4.01232       -3.84443        1.64471
C         -2.95164       -3.27884        0.69083
C         -2.02930       -2.29302        1.36276
H         -2.37482       -4.08688        0.22668
H         -4.70468       -4.51268        1.11333
H         -5.29917       -2.11634        1.57282
H         -4.28085       -0.80255        3.27346
H         -1.94695       -0.08288        3.91896
H          0.27380        0.36176        2.98157
N          1.25958       -0.75095        0.74738
P          1.82351        0.86493        0.94948
C          2.93335        1.31034       -0.37984
C          3.17090        2.64020       -0.63350
C          3.94021        3.00323       -1.72358
C          4.46041        2.03544       -2.57292
C          4.21124        0.69743       -2.29612
C          3.44285        0.33593       -1.20432
H          3.22743       -0.70042       -1.00010
H          4.61599       -0.05953       -2.94597
C          5.29365        2.42391       -3.74426
H          4.12835        4.04301       -1.92948
H          2.71403        3.38467       -0.00036
C          2.60953        0.98953        2.55395
C          3.32798       -0.09146        3.00589
C          3.94354       -0.03781        4.24426
C          3.83551        1.09668        5.03773
C          3.11028        2.17993        4.55920
C          2.49720        2.12261        3.32241
H          1.92298        2.95384        2.95018
H          3.02865        3.06843        5.16172
C          4.51813        1.16287        6.35966
H          4.51158       -0.87937        4.60226
H          3.39418       -0.97453        2.38951
H          1.11195       -0.87148       -0.25381
H          0.32893       -1.02759       -2.90037
C         -0.59968        1.37325       -2.68910
C         -1.70191        1.87065       -3.34180
C         -1.53632        2.76166       -4.38591
C         -0.26601        3.15428       -4.78685
C          0.83410        2.64642       -4.10959
C          0.66554        1.75538       -3.06576
H          1.51772        1.37085       -2.52948
H          1.82346        2.95842       -4.39731
C         -0.08926        4.13955       -5.88917
H         -2.39645        3.16457       -4.89282
H         -2.68733        1.57308       -3.02360
C         -2.46927       -0.19743       -1.14652
C         -3.24566        0.28719       -0.12143
C         -4.59050       -0.02786       -0.06872
C         -5.16697       -0.83254       -1.04269
C         -4.36576       -1.31793       -2.06682
C         -3.01986       -0.99963       -2.11749
H         -2.39158       -1.37540       -2.90988
H         -4.80158       -1.94937       -2.82206
C         -6.60990       -1.19539       -0.98316
H         -5.20083        0.35326        0.73199
H         -2.79834        0.91181        0.63449
Cl        -2.00917        3.00799       -0.35545
H          0.52079       -7.28780       -1.18430
H          0.49976       -6.31295        3.02059
H         -0.54009       -7.33896        0.96168
H         -1.09430       -4.88471        1.82658
H         -3.52416       -4.46654        2.40509
H         -3.44720       -2.77188       -0.14349
H         -3.65386       -2.19304        4.11946
H         -5.55202       -3.09988        2.99181
H          6.34976        2.45966       -3.47369
H          5.17906        1.71107       -4.56212
H          5.00896        3.40724       -4.12130
H          5.55262        1.48947        6.24534
H          4.01613        1.86334        7.02852
H          4.52490        0.18719        6.84760
H         -0.10983        5.15947       -5.50288
H          0.86310        3.99236       -6.40047
H         -0.88199        4.04497       -6.63259
H         -6.73413       -2.25495       -0.75481
H         -7.13277       -0.62378       -0.21519
H         -7.10070       -0.99664       -1.93691
