72
-108.39796776
Cl        -1.97197        0.01507        2.84585
Cl         0.93830       -1.24452        2.67105
P          1.20468       -0.96046       -0.30338
P         -2.20478        0.15972       -0.40567
C         -3.38068       -1.32646       -0.34941
C         -4.12076       -1.34488        0.98476
C         -4.39429       -1.26877       -1.50120
C         -3.11744        1.80657       -0.09890
C         -4.47983        1.79015       -0.78384
C         -1.42729        0.38383       -2.10523
C         -1.31718       -0.85160       -2.98184
C          1.14621        0.36944       -1.54336
C         -0.06405        1.04665       -2.01209
C          0.38749        2.19407       -2.80099
C          1.83588        2.16842       -2.87722
C          2.30596        1.01841       -2.12946
C         -2.53438       -2.59235       -0.44930
H         -3.42315       -1.38214        1.82036
H         -4.75585       -0.46968        1.10695
H         -5.26151       -0.66177       -1.24543
H         -4.77174       -2.26566       -1.73497
C         -3.29136        2.05342        1.39409
H         -4.93365        2.78221       -0.75682
H         -5.16949        1.11353       -0.28281
H         -2.11316        1.08145       -2.59954
H         -2.26238       -1.37017       -3.12741
H         -0.60681       -1.55499       -2.55703
H         -0.93637       -0.59077       -3.97126
H         -0.26391        2.87010       -3.35743
H          2.46170        2.86761       -3.43597
Pd        -0.54089       -0.41678        1.18026
H          3.34402        0.72839       -1.95409
C         -2.28287        2.93693       -0.69765
H         -4.39221        1.49664       -1.83024
H         -2.32651        2.11864        1.89457
H         -3.82049        2.99041        1.57443
H         -3.86016        1.25701        1.87055
H         -2.30683        2.92658       -1.78701
H         -2.65796        3.91074       -0.37795
H         -1.24677        2.85709       -0.38340
H         -4.76325       -2.22413        1.05457
H         -3.96456       -0.85111       -2.40897
H         -3.16376       -3.48295       -0.40456
H         -1.97320       -2.63859       -1.37936
H         -1.82735       -2.65456        0.37771
C          2.91178       -1.04773        0.30349
C          3.42387       -2.10727        1.01006
C          4.75468       -1.80456        1.29761
C          5.00225       -0.57017        0.74987
O          3.88012       -0.09501        0.13493
H          2.88894       -2.99920        1.29245
H          5.45123       -2.41910        1.84420
H          5.94417       -0.03723        0.79115
C          0.79720       -2.60481       -0.91836
C          0.53569       -3.63829       -0.05395
C          0.26506       -4.76470       -0.83210
C          0.37499       -4.36938       -2.14305
O          0.69958       -3.04420       -2.21064
H          0.53632       -3.57110        1.02270
H          0.01906       -5.75092       -0.47388
H          0.22786       -5.00297       -3.00892
Fe         1.23795        2.24984       -0.90020
C          2.88576        2.65765        0.24546
C          1.87715        1.96746        1.02410
C          0.67792        2.77751        1.01643
C          0.93906        3.96375        0.22112
C          2.30962        3.89403       -0.25077
H          3.90671        2.30666        0.07955
H          2.00319        1.02131        1.55543
H         -0.22664        2.56258        1.58699
H          0.24641        4.79165        0.05415
H          2.82181        4.64541       -0.85575
