111
-148.55365350
P         -1.49853        2.66982        1.15272
P         -0.35757       -0.20418        0.51555
C         -1.02777        1.56269        2.51373
C         -0.60068        0.28200        2.23369
C         -0.32027        4.09207        1.05719
C          0.45856        4.05445       -0.24079
C         -1.06200        2.00263        3.82172
H         -1.35309        3.01814        4.03406
C         -0.69717        1.14715        4.84702
H         -0.72840        1.48952        5.86852
C         -0.28667       -0.14137        4.56317
H          0.00266       -0.80506        5.36128
C         -0.22741       -0.57219        3.24995
H          0.12570       -1.56202        3.00639
Pd        -1.65959        1.27956       -0.69247
Cl        -3.16769        2.68554       -1.56157
Cl        -1.55039       -0.21636       -2.36849
C         -1.23130        5.32633        1.21392
C         -3.07899        3.58280        1.47173
H          1.13762        4.90617       -0.32469
H          1.05196        3.14162       -0.32475
H         -0.21849        4.08288       -1.09704
H         -1.43232        5.74277        0.21739
H         -0.70662        6.12221        1.76366
H         -3.58196        3.65843        0.49920
C         -2.58023        4.97331        1.90350
C         -3.97691        2.87958        2.46728
H          0.34731        3.99092        1.92278
H         -2.45277        4.98382        2.99456
H         -3.34353        5.73699        1.68906
H         -4.21843        1.86753        2.13456
H         -3.49787        2.79705        3.44296
H         -4.91440        3.42191        2.60939
C         -0.78579       -4.68058       -0.20057
C         -1.91329       -3.92204        0.20685
C         -1.74405       -2.56741        0.44559
C         -0.53574       -1.95984        0.22661
C          0.52749       -2.66765       -0.27023
C          0.42545       -4.02291       -0.53414
O         -0.86017       -6.09840       -0.24253
C         -3.30078       -4.55233        0.40470
H         -2.55796       -1.96334        0.80857
H          1.44806       -2.14149       -0.45298
C          1.62263       -4.75271       -1.16370
C          3.69673        1.34260       -0.87954
C          3.33963        1.43945        0.49200
C          2.11685        0.92459        0.88832
C          1.23918        0.40453       -0.02645
C          1.52386        0.43485       -1.36587
C          2.72618        0.93478       -1.83279
O          5.03667        1.57187       -1.28454
C          4.22237        2.10160        1.56281
H          1.83648        0.92607        1.92739
H          0.77459        0.07892       -2.05176
C          2.90914        1.05393       -3.35469
C         -3.52370       -5.71778       -0.57648
C         -3.43406       -5.04687        1.85277
C         -4.41435       -3.51584        0.13155
C          2.54911       -5.26587       -0.05137
C          1.15578       -5.92285       -2.04853
C          2.42540       -3.79457       -2.07389
C         -0.48341       -6.73450        0.97213
H         -3.38279       -5.38547       -1.60443
H         -2.82697       -6.53148       -0.39062
H         -4.53217       -6.12029       -0.48480
H         -4.41501       -5.48876        2.02571
H         -2.68217       -5.79779        2.08327
H         -3.30596       -4.22313        2.55464
H         -4.43077       -2.73283        0.88811
H         -4.27774       -3.04881       -0.84351
H         -5.39544       -3.99009        0.14120
H          2.02961       -5.95962        0.60543
H          3.41332       -5.78113       -0.46986
H          2.91182       -4.43955        0.55958
H          0.64927       -6.68592       -1.46289
H          0.46174       -5.57263       -2.81185
H          1.99965       -6.39730       -2.54876
H          1.77086       -3.31629       -2.80191
H          2.92794       -3.01680       -1.50072
H          3.19637       -4.33577       -2.62184
H          0.36981       -7.38863        0.79365
H         -0.22058       -5.99108        1.72575
H         -1.30987       -7.34482        1.33593
C          5.82270        0.39235       -1.25783
C          3.36451        3.06664        2.41089
C          4.81499        1.01630        2.47624
C          5.36120        2.93453        0.94956
C          3.06979       -0.35000       -3.96033
C          1.66161        1.73119       -3.96504
C          4.12307        1.91901       -3.73438
H          2.58464        2.54201        2.96030
H          3.97893        3.59179        3.14170
H          2.88742        3.81303        1.77675
H          5.43150        1.45905        3.25811
H          4.02623        0.43877        2.95743
H          5.43594        0.32403        1.91048
H          4.96611        3.66504        0.24444
H          5.91544        3.47000        1.72004
H          6.06700        2.30303        0.41501
H          3.19231       -0.29620       -5.04171
H          3.93970       -0.85821       -3.54786
H          2.19479       -0.96490       -3.75298
H          1.79228        1.89516       -5.03426
H          0.76697        1.12418       -3.83737
H          1.48103        2.69799       -3.49596
H          5.05338        1.45150       -3.42051
H          4.06271        2.89633       -3.25677
H          4.17680        2.06945       -4.81234
H          5.38705       -0.36157       -1.91214
H          6.83241        0.62505       -1.59674
H          5.86537       -0.00423       -0.24447
