111
-148.54974987
P         -2.48989        2.11836        1.03211
P          0.11491        0.39633        0.49256
C         -1.37950        1.69292        2.40648
C         -0.22631        0.98119        2.15833
C         -3.31561        3.74426        1.36588
C         -3.15799        4.70510        0.20852
C         -1.68736        2.06666        3.69962
H         -2.59857        2.60706        3.89627
C         -0.83340        1.73272        4.73677
H         -1.07447        2.02464        5.74589
C          0.32498        1.02418        4.48156
H          0.98824        0.76204        5.28936
C          0.62780        0.64324        3.18673
H          1.51931        0.07554        2.96951
Pd        -1.30838        1.57360       -0.89083
Cl        -2.93352        2.59209       -2.05027
Cl        -0.07353        1.00290       -2.67760
C         -4.77728        3.33782        1.64731
C         -3.96879        1.00967        0.93444
H         -2.10538        4.86176       -0.03826
H         -3.65138        4.31595       -0.68284
H         -3.60342        5.67778        0.43018
H         -5.45099        4.14490        1.32429
H         -4.93627        3.23655        2.73096
H         -3.90669        0.48086       -0.02677
C         -5.15024        2.00110        0.94662
C         -3.97588        0.02171        2.08048
H         -2.83926        4.15952        2.26410
H         -6.01666        1.53431        1.43744
H         -5.47060        2.21024       -0.08471
H         -4.84002       -0.64516        2.03140
H         -3.07323       -0.59325        2.07570
H         -4.01317        0.54326        3.03869
C         -1.21145       -3.92560       -0.05519
C         -1.13688       -3.38324        1.25380
C         -0.72624       -2.06840        1.39696
C         -0.46989       -1.28650        0.30152
C         -0.64714       -1.77470       -0.96546
C         -1.05719       -3.07799       -1.18166
O         -1.39672       -5.32200       -0.23639
C         -1.45023       -4.21143        2.50971
H         -0.58401       -1.63966        2.37298
H         -0.44634       -1.11375       -1.79057
C         -1.29412       -3.55268       -2.62337
C          4.50385        0.67404       -0.68556
C          3.88141       -0.59313       -0.55234
C          2.55586       -0.63166       -0.15506
C          1.83785        0.52048        0.03268
C          2.40320        1.74696       -0.19713
C          3.72588        1.85714       -0.59568
O          5.90856        0.75905       -0.87794
C          4.61686       -1.91523       -0.82285
H          2.05946       -1.57228        0.00935
H          1.79022        2.62197       -0.06490
C          4.29939        3.24648       -0.91612
C         -2.53643       -5.26421        2.22316
C         -0.16499       -4.89619        2.99854
C         -1.98916       -3.30798        3.64212
C          0.02693       -4.07319       -3.20963
C         -2.37059       -4.65162       -2.67791
C         -1.79868       -2.38474       -3.50232
C         -0.18305       -6.05962       -0.31243
H         -2.19848       -5.99415        1.49179
H         -2.80555       -5.80640        3.12930
H         -3.43591       -4.79041        1.83140
H          0.23893       -5.56290        2.24039
H          0.60077       -4.15662        3.23162
H         -0.35268       -5.48307        3.89732
H         -1.22867       -2.62021        4.00868
H         -2.84381       -2.72571        3.29971
H         -2.31400       -3.90726        4.49239
H          0.42011       -4.90058       -2.62354
H         -0.10981       -4.41981       -4.23359
H          0.78002       -3.28576       -3.21815
H         -2.58390       -4.94066       -3.70670
H         -2.05423       -5.54443       -2.14460
H         -3.29771       -4.30284       -2.22427
H         -1.02915       -1.62912       -3.65217
H         -2.09180       -2.74154       -4.48929
H         -2.66521       -1.90440       -3.04872
H          0.67424       -5.39610       -0.19135
H         -0.16793       -6.81902        0.46923
H         -0.11926       -6.56261       -1.27713
C          6.65650        0.81830        0.32989
C          5.68636       -1.74017       -1.91613
C          5.26452       -2.41306        0.47780
C          3.62969       -2.99332       -1.32808
C          4.89746        3.85796        0.35961
C          5.37226        3.16156       -2.01717
C          3.18987        4.18562       -1.44200
H          6.46583       -1.05054       -1.60192
H          6.16332       -2.69066       -2.15392
H          5.24029       -1.34634       -2.82877
H          4.51013       -2.56788        1.24890
H          5.78372       -3.35783        0.31872
H          5.98505       -1.69365        0.85963
H          3.05773       -2.62424       -2.17886
H          4.16325       -3.88852       -1.64664
H          2.93026       -3.29857       -0.55111
H          5.30035        4.85150        0.16460
H          4.13842        3.94760        1.13639
H          5.70173        3.24070        0.75265
H          5.73132        4.15297       -2.29216
H          6.23082        2.58003       -1.69052
H          4.96759        2.68705       -2.91052
H          2.46884        4.43309       -0.66439
H          2.65496        3.72572       -2.27264
H          3.61348        5.12530       -1.79567
H          5.98907        0.80040        1.19238
H          7.33838       -0.03038        0.38004
H          7.24937        1.73267        0.34748
