75
-122.81449068
P          1.85647       -0.54364       -0.00617
C          3.18931       -1.30889       -0.94210
C          4.47535       -1.22314       -0.45900
C          5.50891       -1.84127       -1.13947
C          5.24415       -2.55324       -2.29238
C          3.94933       -2.65574       -2.76055
C          2.91837       -2.03711       -2.07740
H          1.90199       -2.11396       -2.42918
H          3.74103       -3.21599       -3.65719
H          6.04854       -3.03415       -2.82468
H          6.51763       -1.77045       -0.76696
H          4.66311       -0.68802        0.45863
C          1.70280       -1.52236        1.49474
C          1.69483       -0.92636        2.73500
C          1.66962       -1.70793        3.87494
C          1.65417       -3.08414        3.76447
C          1.65904       -3.67906        2.51844
C          1.68568       -2.89364        1.37990
H          1.70854       -3.34336        0.39966
H          1.64350       -4.75300        2.43170
H          1.63096       -3.69488        4.65217
H          1.65802       -1.24269        4.84682
H          1.70130        0.14849        2.80619
C          2.21649        1.17575        0.39559
C          3.34604        1.84961       -0.00714
C          3.50079        3.19983        0.27474
C          2.47435        3.86719        0.94212
C          1.32755        3.21019        1.32905
C          1.19447        1.83871        1.05977
O          0.02545        1.13989        1.40691
C         -1.18380        1.80020        1.13098
C         -1.35037        3.16271        1.42593
C         -2.54731        3.77764        1.13281
C         -3.59222        3.07783        0.53072
C         -3.40080        1.74122        0.20927
C         -2.21738        1.11046        0.51430
P         -1.82285       -0.57391        0.01196
C         -1.68941       -1.63526        1.45560
C         -1.62644       -1.09558        2.71964
C         -1.61427       -1.92797        3.82342
C         -1.66306       -3.29726        3.65214
C         -1.71982       -3.83519        2.38161
C         -1.73537       -2.99925        1.27940
H         -1.79805       -3.40274        0.28095
H         -1.75481       -4.90382        2.24772
H         -1.64925       -3.94754        4.51151
H         -1.56037       -1.50785        4.81424
H         -1.57762       -0.02555        2.83626
C         -3.13632       -1.25666       -1.01236
C         -4.39113       -1.38426       -0.46101
C         -5.42113       -1.92374       -1.21045
C         -5.18400       -2.33930       -2.50550
C         -3.92064       -2.22148       -3.04984
C         -2.89319       -1.68226       -2.29801
H         -1.90367       -1.58516       -2.71394
H         -3.73467       -2.54692       -4.06018
H         -5.98554       -2.75852       -3.09156
H         -6.40525       -2.02133       -0.78240
H         -4.55659       -1.07034        0.55794
Pd         0.00302        0.04115       -1.36433
Cl        -1.57776        1.09731       -2.57925
Cl         1.54655        0.46759       -2.94506
H         -4.17273        1.20139       -0.30992
C         -4.86065        3.76653        0.17320
H         -4.80940        4.16774       -0.83972
H         -5.06537        4.59378        0.85398
H         -5.70705        3.08012        0.22116
H         -2.66728        4.82235        1.35936
S          0.00086        4.05410        2.15139
H          2.56826        4.91904        1.14686
C          4.71030        3.93339       -0.18397
H          4.10245        1.33294       -0.57046
H          4.92935        4.77927        0.46889
H          5.58581        3.28276       -0.18878
H          4.56926        4.31564       -1.19570
