111
-148.55561989
P         -2.40682        2.34965        0.58478
P          0.04617        0.32098        0.39667
C         -1.39281        2.02056        2.04475
C         -0.36488        1.10623        1.97113
C         -2.62524        4.15910        0.28020
C         -1.84520        4.58716       -0.94394
C         -1.68303        2.64144        3.24247
H         -2.48800        3.35718        3.28871
C         -0.94791        2.33195        4.37382
H         -1.17377        2.81493        5.31047
C          0.06482        1.39462        4.30576
H          0.62950        1.14375        5.18860
C          0.35362        0.77678        3.10209
H          1.13005        0.03028        3.03835
Pd        -1.54832        1.07669       -1.13123
Cl        -3.36107        1.61855       -2.33443
Cl        -0.66038       -0.37422       -2.59987
C         -4.15242        4.31008        0.14607
C         -4.17326        1.84333        0.83090
H         -0.77646        4.39403       -0.82176
H         -2.17878        4.03565       -1.82536
H         -1.97724        5.65205       -1.14998
H         -4.41801        4.26377       -0.91908
H         -4.47066        5.30724        0.48623
H         -4.46162        1.30705       -0.08284
C         -4.91190        3.19186        0.91417
C         -4.34899        0.95649        2.04616
H         -2.26172        4.67392        1.17906
H         -5.01205        3.47621        1.97064
H         -5.94123        3.08742        0.53880
H         -3.72498        0.06298        1.98182
H         -4.06544        1.48445        2.95772
H         -5.38747        0.63748        2.16078
C         -0.87949       -4.12007        0.75097
C         -1.92892       -3.18226        0.57324
C         -1.60129       -1.83877        0.50299
C         -0.29377       -1.42991        0.50795
C          0.72934       -2.33923        0.56632
C          0.47124       -3.69720        0.65416
O         -1.18011       -5.47231        1.06426
C         -3.40509       -3.59370        0.45985
H         -2.37022       -1.08892        0.43703
H          1.73961       -1.96958        0.54826
C          1.64918       -4.68386        0.67255
C          4.36822        1.06905       -0.89523
C          3.46588        0.39717       -1.75690
C          2.15983        0.22855       -1.33262
C          1.74817        0.63782       -0.09178
C          2.64196        1.21031        0.77652
C          3.96739        1.40204        0.42350
O          5.65974        1.43184       -1.36246
C          3.87310       -0.11762       -3.14657
H          1.42667       -0.21394       -1.98178
H          2.28913        1.51732        1.74363
C          4.94302        1.97291        1.46570
C         -4.17277       -2.60751       -0.45139
C         -3.54463       -4.98939       -0.17456
C         -4.04777       -3.57900        1.85473
C          2.84151       -4.12500       -0.13681
C          2.10065       -4.90778        2.12354
C          1.25946       -6.02554        0.02578
C         -1.31528       -5.72551        2.45698
H         -5.18207       -2.96772       -0.64865
H         -4.26918       -1.62429        0.00604
H         -3.66572       -2.49027       -1.40883
H         -3.09522       -5.75648        0.45107
H         -4.59242       -5.25245       -0.31727
H         -3.05156       -5.01959       -1.14562
H         -5.10098       -3.85361        1.80210
H         -3.55121       -4.27729        2.52446
H         -3.97951       -2.58703        2.30052
H          3.28125       -3.25045        0.34032
H          3.63121       -4.87048       -0.22736
H          2.52748       -3.84705       -1.14221
H          2.40818       -3.96757        2.58079
H          1.29561       -5.32130        2.72655
H          2.94350       -5.59700        2.16852
H          0.89099       -5.86990       -0.98762
H          2.11391       -6.70006       -0.02322
H          0.47771       -6.52631        0.59155
H         -2.31496       -6.10665        2.66471
H         -0.59175       -6.48114        2.76259
H         -1.14876       -4.81115        3.02789
C          5.72487        2.72548       -1.94963
C          5.33764       -0.59138       -3.15275
C          3.00606       -1.32926       -3.55893
C          3.67035        0.99921       -4.18167
C          6.36383        1.41721        1.25799
C          4.95323        3.50590        1.36930
C          4.51079        1.57285        2.89534
H          5.49612       -1.35677       -2.39370
H          5.60934       -1.01188       -4.12064
H          6.02098        0.22878       -2.94711
H          3.37603       -1.77322       -4.48276
H          3.02378       -2.09844       -2.78798
H          1.97022       -1.04336       -3.73534
H          2.62879        1.31915       -4.20268
H          4.27890        1.86930       -3.94836
H          3.93915        0.65874       -5.18127
H          6.77514        1.72535        0.30014
H          7.04055        1.77050        2.03563
H          6.35703        0.32801        1.28337
H          5.63033        3.93874        2.10528
H          5.27172        3.83761        0.38412
H          3.95696        3.90954        1.54853
H          3.58387        2.06305        3.18939
H          5.26867        1.86134        3.62336
H          4.36865        0.49498        2.97005
H          6.43360        3.34282       -1.39796
H          6.07650        2.64233       -2.97787
H          4.74250        3.19922       -1.93764
