58
-89.86808203
P          1.52184        0.30143        0.85044
C          1.56094        2.01322        0.30616
C          1.64126        2.26328       -1.04445
C          1.66419        3.56566       -1.50675
C          1.61356        4.61213       -0.60754
C          1.54712        4.35823        0.74843
C          1.52355        3.05336        1.20700
H          1.47704        2.84529        2.26339
H          1.69180        1.43051       -1.72758
C          3.15203       -0.44063        0.74138
C          4.25935        0.37676        0.72935
C          5.52371       -0.17840        0.64498
C          5.66852       -1.54983        0.57324
C          4.55445       -2.36578        0.58570
C          3.29150       -1.80783        0.67120
H          2.41405       -2.43428        0.66914
H          4.12883        1.44599        0.78099
C          0.90538        0.12681        2.57823
C          0.17585       -1.19536        2.78923
C         -1.31064       -1.14895        2.46459
P         -1.72194       -0.60613        0.74810
C         -3.24866       -1.39851        0.23410
C         -3.30894       -2.77200        0.17863
C         -4.47890       -3.39299       -0.22152
C         -5.57997       -2.63237       -0.56245
C         -5.51445       -1.25414       -0.50569
C         -4.34313       -0.63643       -0.10618
H         -4.27620        0.43840       -0.06076
H         -2.43641       -3.35235        0.43473
C         -1.84513        1.18385        0.57052
C         -1.87245        1.69278       -0.70845
C         -1.92648        3.05971       -0.90938
C         -1.95683        3.91073        0.17671
C         -1.93980        3.39729        1.45821
C         -1.88594        2.02975        1.65505
H         -1.88770        1.62620        2.65338
H         -1.84198        1.01230       -1.54528
Pd         0.14019       -0.81009       -0.63471
Cl         1.83331       -0.87252       -2.10979
Cl        -1.29980       -1.80730       -2.04454
H         -1.76437       -2.13481        2.59282
H         -1.83808       -0.48181        3.14782
H          0.66139       -1.97046        2.18080
H          0.30404       -1.52921        3.83081
H          1.78783        0.21180        3.21777
H          0.25919        0.97111        2.81797
H          1.72123        3.76148       -2.56482
H          1.51044        5.17569        1.44963
H          6.39256        0.45892        0.63246
H          4.66722       -3.43572        0.52423
H         -4.52786       -4.46832       -0.27151
H         -6.37245       -0.66020       -0.77465
H         -1.93701        3.45779       -1.91062
H         -1.96569        4.06232        2.30583
H          1.62837        5.62904       -0.96437
H          6.65260       -1.98408        0.50440
H         -6.49098       -3.11525       -0.87649
H         -1.99194        4.97709        0.02413
