87
-129.18628519
P         -1.63653       -0.47414       -0.06494
P          1.57146        0.47105        0.02780
C         -1.43231        0.83618       -1.29189
C          1.43259       -0.60516       -1.40882
C         -0.44083        0.80173       -2.26922
C         -0.29772        1.90643       -3.13143
C         -1.15331        2.98632       -2.99827
C         -2.13226        3.00111       -2.02909
C         -2.26383        1.92410       -1.17526
C          2.28187       -1.68056       -1.50143
C          2.19477       -2.54494       -2.57476
C          1.24930       -2.32516       -3.55360
C          0.37896       -1.25072       -3.47810
C          0.47197       -0.36612       -2.38543
Cl         1.13460        1.10278        3.13555
Cl        -1.39183       -1.06705        3.07553
H         -2.78713        3.85155       -1.93246
H         -3.02162        1.93373       -0.40956
H          3.01791       -1.84523       -0.73211
H          2.86027       -3.38976       -2.64399
H         -1.04001        3.82690       -3.66177
H          1.17450       -2.99907       -4.39015
C         -1.03603       -4.68835       -1.65250
C         -1.86114       -3.81349       -2.34515
C         -2.03533       -2.52771       -1.84420
C         -1.40077       -2.14011       -0.68709
C         -0.60187       -3.02084        0.00455
C         -0.41198       -4.29930       -0.48381
H         -0.89024       -5.68349       -2.03696
C         -2.53470       -4.24798       -3.59919
H         -2.66060       -1.82307       -2.36724
H         -0.14385       -2.71054        0.92937
H          0.21941       -4.99122        0.04905
C         -5.68105       -0.07830        1.99219
C         -5.46810       -1.09282        1.08000
C         -4.24068       -1.21235        0.45591
C         -3.23639       -0.31930        0.74841
C         -3.44698        0.69254        1.65688
C         -4.67632        0.83199        2.28938
H         -6.63290        0.01082        2.48753
H         -6.25564       -1.79426        0.85815
H         -4.05850       -2.00404       -0.25214
H         -2.64576        1.37313        1.89365
C         -4.88515        1.90380        3.30037
C          5.18508       -0.74894        2.51915
C          5.19350        0.45351        1.84018
C          4.09824        0.82582        1.08393
C          3.00719       -0.00763        1.00788
C          2.99591       -1.20547        1.68500
C          4.08349       -1.59109        2.45897
H          6.03776       -1.04227        3.10754
H          6.05137        1.10291        1.90156
H          4.08733        1.76526        0.55606
H          2.13378       -1.84814        1.61912
C          4.07365       -2.89431        3.17744
C          1.80874        4.84773       -1.15760
C          0.96238        4.46154       -0.13699
C          0.89444        3.13257        0.23541
C          1.66617        2.20327       -0.42146
C          2.51722        2.58398       -1.43267
C          2.59703        3.91721       -1.82028
H          1.86725        5.88308       -1.44735
H          0.35778        5.19455        0.37140
H          0.25210        2.81701        1.04145
H          3.11595        1.83892       -1.93061
C          3.52427        4.34430       -2.90330
Pd        -0.08396        0.00752        1.60573
C          0.75359        1.94342       -4.18601
C         -0.63098       -1.05455       -4.55502
H          1.52732        1.19613       -4.00723
H          0.32349        1.75689       -5.17069
H          1.24007        2.91916       -4.21457
H         -1.09673       -2.00157       -4.82951
H         -1.42527       -0.37693       -4.24004
H         -0.16794       -0.63984       -5.45111
H         -1.80126       -4.51165       -4.36262
H         -3.16273       -5.12174       -3.41962
H         -3.17047       -3.45908       -4.00361
H         -4.52932        1.58338        4.28054
H         -4.34467        2.81116        3.02675
H         -5.94122        2.16137        3.39205
H          4.44247       -3.69452        2.53424
H          4.70345       -2.85864        4.06745
H          3.06415       -3.15698        3.49731
H          3.03814        5.05032       -3.57824
H          4.40815        4.82960       -2.48704
H          3.85832        3.49284       -3.49801
