171
-217.83655626
P         -1.68827        0.76625        0.27568
P          1.50721       -0.24325       -0.34542
C         -0.92909        1.83109       -0.97134
C          0.52017       -0.93820       -1.68404
C         -0.30803        1.36411       -2.12383
C          0.34559        2.28665       -2.96231
C          0.33465        3.63092       -2.63064
C         -0.29199        4.07693       -1.48696
C         -0.91465        3.16859       -0.65301
C          0.57554       -2.28093       -1.96516
C         -0.18332       -2.80879       -2.99095
C         -1.00021       -1.98184       -3.73402
C         -1.07574       -0.62426       -3.46553
C         -0.28772       -0.08894       -2.42925
Cl         2.19243        1.31950        2.49578
Cl        -0.84175        0.54943        3.44238
C         -1.97172        0.25570       -4.26628
C          1.07273        1.85368       -4.18720
H         -0.28732        5.12545       -1.23772
H         -1.38568        3.49896        0.26113
H          1.21347       -2.92007       -1.38024
H         -0.14048       -3.86400       -3.20614
H          0.83672        4.33089       -3.27723
H         -1.58933       -2.39166       -4.53666
C         -3.04587       -3.46835       -0.61368
C         -3.68815       -2.40230       -1.23272
C         -3.21734       -1.12203       -0.97083
C         -2.14971       -0.92489       -0.13012
C         -1.53747       -1.99127        0.48648
C         -1.97384       -3.28907        0.25319
H         -3.40641       -4.46275       -0.79207
H         -3.71030       -0.26583       -1.39829
H         -0.73289       -1.81316        1.17762
C         -5.51073        2.78810        1.63262
C         -4.66639        2.25468        2.60035
C         -3.49132        1.65304        2.17472
C         -3.17670        1.59176        0.84245
C         -4.02038        2.12277       -0.10138
C         -5.20853        2.73501        0.27611
H         -6.42508        3.25599        1.94259
H         -2.80503        1.23261        2.88721
H         -3.74627        2.06201       -1.14181
C          3.89540       -3.59982        1.61012
C          4.01806       -3.36014        0.24715
C          3.28012       -2.31879       -0.29927
C          2.43151       -1.56606        0.47527
C          2.33145       -1.81855        1.82279
C          3.06454       -2.83420        2.41869
H          4.46525       -4.39387        2.05260
H          3.36839       -2.09724       -1.34866
H          1.69200       -1.21064        2.43513
C          4.57890        2.55626       -2.15046
C          4.31516        1.34450       -2.77761
C          3.36024        0.51221       -2.20476
C          2.71545        0.87892       -1.04879
C          2.99064        2.07865       -0.44527
C          3.92244        2.95000       -0.99030
H          5.32876        3.19812       -2.57261
H          3.10046       -0.42443       -2.66632
H          2.49348        2.32588        0.47529
Pd         0.29826        0.61239        1.50502
C         -4.78872       -1.85235       -3.43067
C         -4.95209       -2.58379       -2.08649
C         -6.15090       -1.99248       -1.32284
C         -5.23408       -4.07007       -2.37969
H         -3.93216       -2.24417       -3.97715
H         -5.67267       -1.98272       -4.05478
H         -4.64194       -0.78292       -3.28734
H         -7.07163       -2.09784       -1.89632
H         -6.28665       -2.49883       -0.36739
H         -6.00085       -0.93285       -1.11898
H         -4.38885       -4.53480       -2.88730
H         -5.43429       -4.62268       -1.46206
H         -6.10761       -4.17808       -3.02258
C         -1.94116       -5.81269        0.61700
C         -1.33812       -4.45506        1.02644
C         -1.58968       -4.24232        2.53031
C          0.17536       -4.50272        0.75378
H         -3.00802       -5.85205        0.83593
H         -1.79757       -5.99977       -0.44712
H         -1.46420       -6.62676        1.16278
H         -2.65857       -4.20465        2.73930
H         -1.15936       -5.05270        3.11822
H         -1.15230       -3.30597        2.87386
H          0.36999       -4.69088       -0.30121
H          0.65438       -3.56467        1.02524
H          0.65227       -5.29723        1.32738
C         -6.32043        3.00952        4.38429
C         -4.98153        2.30145        4.10231
C         -3.86052        3.06563        4.83160
C         -5.06424        0.86288        4.64618
H         -6.52646        3.03448        5.45431
H         -6.30219        4.03941        4.02826
H         -7.14826        2.49029        3.90170
H         -2.89786        2.57131        4.70646
H         -3.76898        4.07915        4.44180
H         -4.06422        3.13129        5.90016
H         -5.30509        0.86059        5.70903
H         -5.83530        0.29743        4.12329
H         -4.11900        0.33668        4.51793
C         -5.35910        4.38285       -1.60696
C         -6.12830        3.31348       -0.80850
C         -7.38607        3.96591       -0.20359
C         -6.57117        2.18051       -1.75341
H         -4.48669        3.95754       -2.10184
H         -5.99262        4.82806       -2.37391
H         -5.01406        5.18006       -0.94885
H         -7.97544        3.23889        0.35487
H         -7.12030        4.78424        0.46537
H         -8.02414        4.37460       -0.98709
H         -7.23432        2.55797       -2.53155
H         -5.71603        1.71469       -2.24196
H         -7.10455        1.40659       -1.20195
C          5.98884       -3.26856       -1.29853
C          4.92772       -4.19042       -0.66896
C          4.07469       -4.83320       -1.77924
C          5.64791       -5.31135        0.10441
H          6.58842       -2.78796       -0.52575
H          6.66025       -3.83118       -1.94691
H          5.52689       -2.48468       -1.89725
H          3.29576       -5.46321       -1.34994
H          3.59034       -4.07691       -2.39596
H          4.68810       -5.45237       -2.43351
H          6.28358       -5.89397       -0.56230
H          6.28296       -4.90122        0.88941
H          4.93225       -5.99592        0.55946
C          3.43602       -1.76107        4.65009
C          2.95659       -3.03936        3.93670
C          3.81761       -4.22343        4.41584
C          1.49076       -3.31948        4.31394
H          4.46648       -1.53273        4.37912
H          2.82254       -0.90271        4.37837
H          3.38772       -1.87609        5.73264
H          4.87211       -4.05606        4.19742
H          3.72247       -4.35932        5.49309
H          3.50724       -5.15222        3.93735
H          0.84567       -2.48409        4.04490
H          1.12684       -4.20859        3.80041
H          1.38854       -3.48442        5.38629
C          4.54417       -0.35315       -4.66041
C          5.11834        0.92569       -4.01823
C          6.57291        0.65385       -3.59512
C          5.08956        2.04800       -5.07377
H          5.09944       -0.61649       -5.56054
H          4.60774       -1.20082       -3.97876
H          3.50084       -0.21493       -4.94316
H          7.17619        0.33982       -4.44672
H          7.03055        1.54652       -3.16971
H          6.61427       -0.13328       -2.84244
H          4.06718        2.27383       -5.37392
H          5.53965        2.96503       -4.69644
H          5.64187        1.75421       -5.96628
C          4.73596        3.99938        1.13440
C          4.20249        4.28256       -0.28230
C          2.89501        5.09114       -0.19073
C          5.24515        5.12466       -1.04172
H          4.96105        4.92724        1.65973
H          4.00805        3.44819        1.72857
H          5.64847        3.40535        1.09020
H          2.13611        4.55443        0.37744
H          3.06199        6.05000        0.29945
H          2.49375        5.28540       -1.18502
H          4.90505        5.35078       -2.05221
H          5.42143        6.07225       -0.53282
H          6.19992        4.60310       -1.10582
H         -2.69792       -0.32509       -4.83611
H          0.57857        2.22277       -5.08707
H         -1.40000        0.85368       -4.97637
H         -2.52466        0.93935       -3.61988
H          1.13586        0.76720       -4.25638
H          2.09108        2.24301       -4.18229
