111
-148.55403381
P         -1.59870        2.74036       -0.30105
P         -0.48436       -0.10972        0.46830
C         -1.73186        2.15489        1.41173
C         -1.30321        0.88416        1.73167
C         -0.40016        4.14483       -0.40386
C          0.80975        3.75380       -1.22539
C         -2.22335        2.98287        2.40068
H         -2.51783        3.98965        2.15380
C         -2.30950        2.52441        3.70394
H         -2.69708        3.16948        4.47550
C         -1.89215        1.24531        4.01854
H         -1.95322        0.89095        5.03435
C         -1.37670        0.42590        3.03048
H         -1.01307       -0.56221        3.26500
Pd        -1.16209        0.83670       -1.52981
Cl        -2.10931        1.70793       -3.36139
Cl        -0.56176       -1.09649       -2.51879
C         -1.23697        5.28774       -1.01374
C         -3.13137        3.57725       -0.91670
H          1.51299        4.58444       -1.32088
H          1.34055        2.91152       -0.77702
H          0.51166        3.45244       -2.23175
H         -1.02013        5.34595       -2.08917
H         -0.92169        6.25682       -0.59850
H         -3.22120        3.29295       -1.97325
C         -2.76352        5.06800       -0.81002
C         -4.37320        3.16234       -0.15692
H         -0.11650        4.37958        0.63052
H         -3.06227        5.43890        0.17996
H         -3.34622        5.65837       -1.53373
H         -5.26595        3.64617       -0.55957
H         -4.52289        2.08133       -0.20536
H         -4.30168        3.43530        0.89612
C         -1.04722       -4.61110        0.89841
C          0.23746       -4.08636        0.59841
C          0.36905       -2.71425        0.46977
C         -0.68972       -1.87329        0.69173
C         -1.90393       -2.36783        1.09118
C         -2.10324       -3.72971        1.25366
O         -1.29372       -6.00209        0.76933
C          1.49458       -4.95007        0.39991
H          1.31112       -2.28576        0.17635
H         -2.70604       -1.67206        1.27254
C         -3.45150       -4.19595        1.82957
C          3.80323        1.38649        0.09529
C          3.29272        0.47051       -0.85963
C          1.98770        0.03427       -0.71476
C          1.23246        0.39991        0.36753
C          1.75228        1.20964        1.34254
C          3.04667        1.69356        1.25518
O          5.05091        2.02735       -0.12898
C          4.10293       -0.01231       -2.07199
H          1.51834       -0.56275       -1.47689
H          1.11859        1.48358        2.16745
C          3.58609        2.58355        2.38529
C          1.83249       -5.02026       -1.09859
C          2.68410       -4.31444        1.15440
C          1.31876       -6.37324        0.95730
C         -3.40859       -5.65609        2.31322
C         -3.81289       -3.32726        3.05522
C         -4.54672       -4.03943        0.76189
C         -1.73452       -6.36425       -0.52875
H          1.97739       -4.02259       -1.51135
H          2.74607       -5.59009       -1.26608
H          1.03257       -5.49686       -1.66135
H          2.43910       -4.16971        2.20620
H          3.56465       -4.95407        1.09960
H          2.96150       -3.34827        0.73637
H          2.24828       -6.93832        0.89226
H          1.01201       -6.34146        2.00217
H          0.56092       -6.92263        0.40385
H         -2.59268       -5.80286        3.02007
H         -4.33994       -5.93437        2.80586
H         -3.25817       -6.34265        1.48357
H         -3.01495       -3.35794        3.79664
H         -3.97760       -2.28672        2.78073
H         -4.72622       -3.68558        3.52947
H         -4.33441       -4.65067       -0.11299
H         -5.51809       -4.34019        1.15354
H         -4.62379       -3.00390        0.43205
H         -2.66758       -5.85480       -0.76283
H         -0.98775       -6.08290       -1.26904
H         -1.89259       -7.44223       -0.56721
C          4.95836        3.24039       -0.86639
C          5.60658       -0.07673       -1.74924
C          3.67160       -1.44009       -2.47911
C          3.85079        0.93308       -3.25649
C          3.26206        4.05236        2.07173
C          2.92793        2.21373        3.73438
C          5.10401        2.39781        2.56097
H          6.17085       -0.47879       -2.59033
H          6.00833        0.90785       -1.52483
H          5.78575       -0.71482       -0.88451
H          4.32243       -1.83299       -3.25981
H          3.72529       -2.11703       -1.62713
H          2.65583       -1.46045       -2.87076
H          2.79152        0.95556       -3.51193
H          4.15513        1.95026       -3.02158
H          4.40393        0.61080       -4.13822
H          3.62485        4.70949        2.86163
H          3.71905        4.36697        1.13674
H          2.18600        4.19778        1.97956
H          1.87022        2.47273        3.75199
H          3.02422        1.14666        3.93315
H          3.40142        2.75112        4.55573
H          5.64825        2.71553        1.67524
H          5.34366        1.35057        2.74224
H          5.47548        2.98163        3.40278
H          5.37321        4.05843       -0.27769
H          5.53709        3.15634       -1.78601
H          3.91879        3.45957       -1.11123
