58
-89.86473494
P          1.71969        0.27093        0.77654
C          3.00916        1.45666        0.39348
C          2.68633        2.78926        0.27847
C          3.67282        3.70990       -0.02789
C          4.97402        3.28717       -0.21686
C          5.29180        1.94809       -0.10169
C          4.30354        1.02985        0.20414
H          4.53369       -0.01985        0.29050
H          1.66392        3.10259        0.42116
C          2.30599       -1.41354        0.54188
C          2.61062       -2.22469        1.61193
C          3.01963       -3.52755        1.39153
C          3.12586       -4.00918        0.10165
C          2.83089       -3.18978       -0.96934
C          2.42211       -1.88893       -0.74431
H          2.18755       -1.23304       -1.56673
H          2.53105       -1.84091        2.61570
C          1.20126        0.57456        2.51465
C          0.04998       -0.29639        3.00137
C         -1.32400        0.20867        2.59258
P         -1.76045        0.04797        0.81097
C         -1.98926       -1.68210        0.36891
C         -0.89303       -2.51285        0.40237
C         -1.01942       -3.84408        0.05189
C         -2.24915       -4.33674       -0.33586
C         -3.34603       -3.49880       -0.38211
C         -3.21324       -2.16730       -0.03210
H         -4.05767       -1.50142       -0.08863
H          0.07036       -2.10776        0.65819
C         -3.26388        1.01549        0.59436
C         -4.40782        0.62527        1.25500
C         -5.56662        1.37056        1.12842
C         -5.57004        2.50997        0.34879
C         -4.41736        2.90815       -0.29836
C         -3.26103        2.16048       -0.16943
H         -2.35563        2.46270       -0.67019
H         -4.38852       -0.25635        1.87631
Pd        -0.05101        0.52273       -0.69474
Cl         1.53881        0.83872       -2.26086
Cl        -1.70848        0.59681       -2.21514
H         -2.11283       -0.32063        3.13281
H         -1.42955        1.26578        2.84455
H          0.18696       -1.32759        2.65515
H          0.08984       -0.36049        4.10001
H          2.10090        0.42008        3.11563
H          0.94833        1.63270        2.60286
H          3.42425        4.75417       -0.12247
H          6.30629        1.61774       -0.25311
H          3.25446       -4.16638        2.22705
H          2.91603       -3.56184       -1.97704
H         -0.15621       -4.48878        0.07073
H         -4.30379       -3.87980       -0.69653
H         -6.46374        1.06304        1.64022
H         -4.41780        3.79866       -0.90524
H          5.74252        4.00348       -0.45774
H          3.44300       -5.02502       -0.06934
H         -2.35101       -5.37351       -0.61229
H         -6.47233        3.09085        0.24777
