111
-148.55615478
P         -2.66112        2.05609        0.66101
P          0.08411        0.44892        0.49611
C         -1.77303        1.61405        2.17987
C         -0.55658        0.97017        2.10002
C         -3.48718        3.70586        0.81139
C         -2.73413        4.78064        0.05831
C         -2.31168        1.91511        3.41460
H         -3.27260        2.39935        3.47349
C         -1.62383        1.57838        4.56774
H         -2.04424        1.81336        5.53195
C         -0.40131        0.94020        4.48464
H          0.13323        0.67602        5.38223
C          0.13152        0.63085        3.24628
H          1.07600        0.11641        3.16436
Pd        -1.16757        1.63431       -1.04646
Cl        -2.61057        2.67286       -2.41544
Cl         0.35707        1.16152       -2.62677
C         -4.90760        3.42242        0.28884
C         -4.12725        0.98285        0.30967
H         -2.67877        4.54431       -1.00486
H         -3.22386        5.75253        0.15360
H         -1.70979        4.87864        0.42556
H         -4.93760        3.64386       -0.78697
H         -5.63209        4.10895        0.75287
H         -4.05003        0.70108       -0.74909
C         -5.31572        1.93935        0.52283
C         -4.13666       -0.24580        1.19307
H         -3.51784        3.94081        1.88284
H         -5.68606        1.81952        1.55026
H         -6.15653        1.65616       -0.12847
H         -4.14415        0.03525        2.24782
H         -5.01706       -0.86536        1.00734
H         -3.24994       -0.86011        1.02362
C         -1.26074       -3.81831       -0.36439
C         -0.96386       -2.93698       -1.43520
C         -0.53213       -1.65902       -1.12834
C         -0.47274       -1.22182        0.16756
C         -0.85963       -2.03438        1.20036
C         -1.29287       -3.32847        0.96655
O         -1.48983       -5.19656       -0.61965
C         -1.08417       -3.34561       -2.91144
H         -0.22992       -0.97595       -1.90268
H         -0.81332       -1.64252        2.20087
C         -1.75684       -4.18803        2.15269
C          4.61745        0.54787        0.12236
C          3.97978       -0.54742        0.75946
C          2.59726       -0.54191        0.84229
C          1.86620        0.52801        0.39610
C          2.48381        1.63709       -0.11828
C          3.86258        1.69280       -0.24076
O          6.00204        0.48202       -0.18742
C          4.75363       -1.74952        1.32320
H          2.06610       -1.38922        1.24137
H          1.86667        2.45366       -0.45117
C          4.50950        2.96369       -0.81299
C         -1.44834       -2.12228       -3.78476
C          0.26072       -3.91008       -3.39326
C         -2.20093       -4.38600       -3.11128
C         -0.55440       -4.95514        2.72326
C         -2.35243       -3.30386        3.27232
C         -2.86076       -5.17171        1.72419
C         -0.30928       -5.98949       -0.61569
H         -2.32995       -1.61512       -3.39360
H         -0.63316       -1.40200       -3.83253
H         -1.66435       -2.42770       -4.80818
H          1.05071       -3.16727       -3.28453
H          0.54960       -4.78638       -2.81779
H          0.20989       -4.19786       -4.44301
H         -1.97968       -5.31208       -2.58683
H         -3.14989       -4.00700       -2.73335
H         -2.32776       -4.62708       -4.16639
H          0.22085       -4.26458        3.05480
H         -0.84980       -5.56623        3.57577
H         -0.11496       -5.61138        1.97595
H         -2.78809       -3.91897        4.05935
H         -1.59397       -2.67790        3.74008
H         -3.13791       -2.65820        2.88113
H         -2.49274       -5.88681        0.99262
H         -3.23531       -5.73663        2.57745
H         -3.69824       -4.63714        1.27703
H          0.56242       -5.37358       -0.39070
H         -0.40113       -6.77678        0.13238
H         -0.18013       -6.45980       -1.59029
C          6.28406       -0.09188       -1.45786
C          6.14506       -1.32787        1.82923
C          4.00408       -2.36207        2.52886
C          4.88741       -2.82399        0.23332
C          3.66463        4.21084       -0.46670
C          5.91034        3.19234       -0.21701
C          4.59559        2.84158       -2.34212
H          6.66683       -2.16789        2.28709
H          6.76729       -0.95716        1.01870
H          6.05898       -0.53603        2.57258
H          4.60880       -3.13027        3.01035
H          3.77830       -1.59878        3.27310
H          3.07021       -2.83416        2.22715
H          3.90522       -3.15206       -0.10653
H          5.42605       -2.44404       -0.63143
H          5.42367       -3.69553        0.60790
H          4.18433        5.12311       -0.75874
H          2.70874        4.20788       -0.98835
H          3.47225        4.26363        0.60456
H          5.86199        3.23621        0.87050
H          6.59312        2.39108       -0.48807
H          6.34096        4.12691       -0.57564
H          5.20436        1.99010       -2.63617
H          5.03398        3.73701       -2.78183
H          3.60411        2.70359       -2.77300
H          6.90580       -0.97781       -1.33017
H          5.35822       -0.36689       -1.96474
H          6.83406        0.62403       -2.06846
