111
-148.56070404
P         -2.55591        2.27217        0.37851
P         -0.02531        0.34708        0.46332
C         -1.69915        1.97295        1.94719
C         -0.59220        1.15271        1.97443
C         -3.13770        4.02302        0.23867
C         -2.28814        4.80673       -0.73787
C         -2.15605        2.55243        3.11362
H         -3.03469        3.17606        3.09057
C         -1.49217        2.31819        4.30546
H         -1.84717        2.77175        5.21645
C         -0.37720        1.50272        4.32885
H          0.14025        1.32033        5.25630
C          0.07150        0.91471        3.15988
H          0.93779        0.27207        3.16319
Pd        -1.18534        1.38888       -1.24884
Cl        -2.61362        2.19807       -2.77642
Cl         0.21782        0.41271       -2.70212
C         -4.61164        3.85963       -0.17793
C         -4.16889        1.37520        0.25913
H         -2.32587        4.35753       -1.73142
H         -2.63428        5.83891       -0.82957
H         -1.24085        4.82555       -0.42675
H         -4.67314        3.89535       -1.27441
H         -5.20870        4.71236        0.17963
H         -4.18248        0.90595       -0.73349
C         -5.20449        2.51321        0.32808
C         -4.29861        0.33498        1.35148
H         -3.07045        4.45814        1.24376
H         -5.53566        2.62758        1.36941
H         -6.10755        2.24350       -0.24037
H         -3.49276       -0.40091        1.29752
H         -4.24684        0.80108        2.33714
H         -5.25058       -0.19705        1.28611
C         -1.12252       -4.07577        0.38354
C         -0.18886       -3.59117        1.33781
C          0.12287       -2.24132        1.32175
C         -0.51363       -1.37685        0.46931
C         -1.51585       -1.81929       -0.35480
C         -1.87137       -3.15661       -0.39764
O         -1.24203       -5.46999        0.15049
C          0.48659       -4.47203        2.40253
H          0.88796       -1.85176        1.97209
H         -2.01247       -1.11168       -0.99480
C         -3.04828       -3.55762       -1.30275
C          4.45646        0.74728       -0.23965
C          3.76274       -0.40208       -0.69633
C          2.39854       -0.47470       -0.47169
C          1.74214        0.49991        0.23244
C          2.42395        1.56524        0.75967
C          3.79126        1.69644        0.57876
O          5.80369        0.96719       -0.63186
C          4.45030       -1.54326       -1.46168
H          1.81917       -1.29263       -0.86449
H          1.86766        2.30053        1.31466
C          4.52531        2.86930        1.24786
C          0.37778       -3.78023        3.77937
C         -0.18522       -5.84954        2.53770
C          1.97120       -4.65762        2.04798
C         -4.22797       -2.58652       -1.07627
C         -2.60781       -3.47702       -2.77395
C         -3.56700       -4.97323       -0.99640
C         -0.32257       -5.94297       -0.81998
H         -0.66364       -3.57214        4.02325
H          0.78745       -4.41341        4.56596
H          0.92332       -2.83839        3.80367
H          0.24336       -6.41647        3.36383
H         -1.25393       -5.73976        2.71846
H         -0.05907       -6.44021        1.63351
H          2.47569       -5.27159        2.79359
H          2.08715       -5.14217        1.08027
H          2.48348       -3.69716        2.00373
H         -5.10076       -2.89515       -1.65103
H         -4.51013       -2.56347       -0.02417
H         -3.98184       -1.57180       -1.38374
H         -2.27341       -2.47101       -3.02572
H         -1.78479       -4.15976       -2.97599
H         -3.42970       -3.73435       -3.44144
H         -3.81892       -5.06998        0.05908
H         -4.45790       -5.20045       -1.58141
H         -2.81889       -5.72671       -1.23101
H         -0.43830       -7.02144       -0.92968
H         -0.51053       -5.46176       -1.77836
H          0.69703       -5.71924       -0.51003
C          5.94046        1.70136       -1.84214
C          5.91096       -1.71764       -1.00840
C          3.73421       -2.88756       -1.19512
C          4.39200       -1.24708       -2.96792
C          5.97016        2.48289        1.61330
C          4.52415        4.07840        0.30047
C          3.82176        3.27297        2.56392
H          6.50547       -0.83640       -1.23540
H          5.96117       -1.88619        0.06682
H          6.37729       -2.56688       -1.50720
H          4.29000       -3.71585       -1.63395
H          3.64754       -3.07306       -0.12525
H          2.73566       -2.90833       -1.62906
H          4.90396       -0.31806       -3.20699
H          4.85864       -2.04696       -3.54218
H          3.35878       -1.14980       -3.30059
H          6.55827        2.26154        0.72615
H          6.46953        3.29187        2.14589
H          5.98145        1.59929        2.25057
H          3.50451        4.37649        0.05752
H          5.02628        4.93165        0.75577
H          5.03256        3.84860       -0.63274
H          3.69173        2.40876        3.21490
H          2.84334        3.71420        2.37988
H          4.40949        4.01408        3.10516
H          6.46807        1.09716       -2.57989
H          4.95979        1.97699       -2.23219
H          6.52591        2.60217       -1.65873
