171
-217.84291498
P         -1.62282        0.35754       -0.42779
P          1.57822       -0.40310       -0.32496
C         -0.88519        1.28672       -1.77348
C          0.91092       -1.40856       -1.65109
C         -0.07135        0.64324       -2.69928
C          0.56465        1.41543       -3.69085
C          0.33447        2.78032       -3.73805
C         -0.50028        3.39344       -2.82800
C         -1.10435        2.64084       -1.84039
C          1.14108       -2.76247       -1.62177
C          0.58321       -3.58224       -2.58245
C         -0.22163       -3.03579       -3.55947
C         -0.46750       -1.67305       -3.60427
C          0.12808       -0.83242       -2.64478
Cl         1.42127        0.42752        2.91569
Cl        -1.67124       -0.50129        2.80894
C         -1.34137       -1.12048       -4.67429
C          1.47651        0.79621       -4.69173
H         -0.67738        4.45507       -2.88383
H         -1.75370        3.11217       -1.12077
H          1.75974       -3.18082       -0.84447
H          0.77100       -4.64335       -2.56297
H          0.82015        3.36477       -4.50129
H         -0.67096       -3.67220       -4.30310
C         -3.97376       -3.25884       -1.77873
C         -2.92585       -3.43414       -0.88315
C         -2.21319       -2.30914       -0.48839
C         -2.53381       -1.07397       -0.99267
C         -3.56633       -0.91699       -1.88417
C         -4.31685       -2.01306       -2.29209
H         -4.54372       -4.12121       -2.06868
H         -1.40550       -2.38404        0.21904
H         -3.79743        0.07058       -2.24777
C         -4.19935        2.85284        2.35307
C         -4.77179        1.76420        1.70717
C         -3.97549        1.03404        0.83362
C         -2.66887        1.39363        0.61323
C         -2.12058        2.47223        1.26278
C         -2.87337        3.21948        2.15865
H         -4.80499        3.41617        3.03757
H         -4.36161        0.16246        0.33587
H         -1.08690        2.71573        1.08680
C          4.37107       -2.74038        2.38558
C          3.02566       -3.09105        2.35258
C          2.19082       -2.39077        1.49208
C          2.68185       -1.36786        0.72003
C          4.00966       -1.02654        0.77561
C          4.88554       -1.70984        1.60696
H          5.03196       -3.27714        3.03835
H          1.14294       -2.63285        1.43663
H          4.36622       -0.20900        0.17376
C          3.89610        3.26505       -1.58525
C          2.90865        3.39539       -0.61592
C          2.18345        2.26233       -0.27294
C          2.43884        1.06138       -0.88540
C          3.41816        0.94627       -1.84113
C          4.17346        2.05407       -2.20836
H          4.48528        4.12211       -1.85171
H          1.43309        2.30742        0.49805
H          3.60094       -0.02113       -2.27744
Pd        -0.07180       -0.03248        1.29003
C         -2.38127       -5.80949       -1.49354
C         -2.61534       -4.83061       -0.32765
C         -3.80541       -5.30918        0.52263
C         -1.35318       -4.81903        0.55616
H         -2.11674       -6.79991       -1.12357
H         -3.27192       -5.91390       -2.11168
H         -1.57057       -5.46050       -2.13191
H         -3.61259       -6.29542        0.94445
H         -3.99111       -4.61947        1.34585
H         -4.71554       -5.37132       -0.07306
H         -1.12564       -5.82132        0.91877
H         -0.48980       -4.46436       -0.00551
H         -1.48743       -4.17746        1.42679
C         -6.54265       -0.89343       -2.54513
C         -5.51383       -1.80815       -3.23371
C         -6.20268       -3.14231       -3.58062
C         -5.04098       -1.15366       -4.54419
H         -7.41428       -0.73750       -3.18053
H         -6.88280       -1.33605       -1.60924
H         -6.11413        0.08292       -2.32160
H         -6.59281       -3.62754       -2.68613
H         -7.04095       -2.97949       -4.25800
H         -5.50953       -3.82520       -4.07165
H         -5.88245       -0.96797       -5.21153
H         -4.54798       -0.20036       -4.35803
H         -4.33956       -1.80258       -5.06648
C         -6.34519        0.99033        3.49467
C         -6.22582        1.37490        2.00889
C         -6.68058        0.17590        1.15488
C         -7.15130        2.56691        1.70184
H         -7.36313        0.68778        3.73963
H         -5.67905        0.16062        3.73062
H         -6.07962        1.82568        4.14155
H         -7.71800       -0.08130        1.36824
H         -6.60914        0.40898        0.09340
H         -6.07416       -0.70648        1.35855
H         -8.19428        2.30681        1.88187
H         -6.91191        3.42771        2.32485
H         -7.05435        2.87023        0.65951
C         -0.84994        4.01317        3.42854
C         -2.23438        4.41474        2.87989
C         -3.09708        4.88843        4.06608
C         -2.08261        5.57368        1.88054
H         -0.40716        4.82609        4.00362
H         -0.93151        3.14321        4.07984
H         -0.15710        3.76590        2.62669
H         -4.05884        5.27327        3.72823
H         -3.27710        4.07283        4.76628
H         -2.59902        5.69090        4.61012
H         -1.59571        6.43103        2.34493
H         -1.48802        5.27120        1.02009
H         -3.05678        5.89492        1.51231
C          2.00550       -5.37453        2.31364
C          2.43631       -4.21041        3.22217
C          1.21403       -3.67060        3.99217
C          3.45918       -4.73507        4.24808
H          1.56343       -6.18311        2.89546
H          1.27044       -5.04602        1.58084
H          2.86033       -5.77586        1.76963
H          1.49096       -2.80575        4.59457
H          0.41747       -3.36314        3.31623
H          0.80559       -4.43032        4.65814
H          3.01167       -5.49891        4.88390
H          4.31942       -5.18492        3.75296
H          3.81192       -3.93099        4.89375
C          6.96715       -1.46353        0.23321
C          6.36182       -1.28996        1.63872
C          7.17630       -2.13940        2.63271
C          6.45805        0.18788        2.06366
H          6.44930       -0.84557       -0.49932
H          8.01965       -1.18081        0.22343
H          6.89243       -2.50077       -0.09275
H          7.15189       -3.19418        2.35960
H          8.22021       -1.82611        2.64396
H          6.78973       -2.03469        3.64629
H          7.49732        0.51112        2.11986
H          5.94539        0.83887        1.35628
H          6.00375        0.33637        3.04302
C          2.83901        4.52160        1.62079
C          2.62159        4.71737        0.10826
C          1.16440        5.13023       -0.15929
C          3.54674        5.85007       -0.37572
H          2.63920        5.44322        2.16703
H          2.18397        3.74867        2.01991
H          3.86679        4.22267        1.82557
H          0.47280        4.35488        0.16511
H          0.91445        6.05004        0.36908
H          1.00241        5.29694       -1.22365
H          4.59319        5.60797       -0.19103
H          3.41646        6.03431       -1.44198
H          3.32568        6.77961        0.14880
C          6.65501        2.24376       -2.45909
C          5.33805        1.95793       -3.20435
C          5.14665        2.99155       -4.33036
C          5.43151        0.55590       -3.83798
H          6.65560        3.24494       -2.02942
H          6.79997        1.53219       -1.64642
H          7.50918        2.16749       -3.13164
H          4.20116        2.83244       -4.84711
H          5.14703        4.00894       -3.94151
H          5.94798        2.91849       -5.06547
H          5.61972       -0.20569       -3.08156
H          4.51293        0.29930       -4.36431
H          6.24844        0.51098       -4.55807
H         -1.84580       -0.21180       -4.34258
H          0.99453        0.72562       -5.66773
H         -2.10799       -1.84164       -4.95875
H         -0.76295       -0.88128       -5.56731
H          1.78093       -0.20688       -4.39021
H          2.38111        1.39275       -4.81033
