100
-131.97418935
C         -1.64200        3.84196       -1.36704
C         -2.36938        2.56968       -1.44195
C         -0.24952        3.58705       -1.48600
C         -0.04704        2.11412       -1.55715
C          1.12633        1.55393       -2.28919
C         -1.42124        1.50309       -1.57442
C         -1.80756        0.10566       -2.02546
C         -0.89343       -0.50144       -3.07123
Cl         1.09222       -0.52299        2.75900
Cl        -1.86023       -1.47414        2.34341
C          3.22669        0.58427       -3.87211
C          2.48462        1.66558       -4.30421
C          2.93735       -0.00280       -2.64877
C          1.46110        2.14632       -3.52688
C          1.90083        0.45251       -1.86809
H         -3.45396        2.46926       -1.49928
H          0.53857        4.33988       -1.56128
H          0.05801       -0.79278       -2.62866
H         -1.32869       -1.39446       -3.52567
H         -0.68599        0.20803       -3.87572
H          4.03855        0.20916       -4.47351
H          2.71028        2.13113       -5.24998
H          3.55725       -0.81190       -2.29916
H          0.87562        2.98217       -3.86927
H         -2.10412        4.83242       -1.34000
P          1.78771       -0.28012       -0.21976
H         -2.81386        0.17327       -2.45694
P         -2.00792       -1.01548       -0.57038
H         -2.95646       -2.94940       -1.70418
C         -1.82558       -3.85828       -0.10750
C         -2.02930       -2.76722       -1.16500
C         -3.05816       -4.05506        0.77669
H         -3.37615        0.36433        0.81831
C         -4.81337       -0.24939       -0.65655
C         -3.60028       -0.52872        0.23650
H         -4.55073        0.57669       -1.33890
C         -5.20624       -1.45481       -1.50991
H          3.53494       -1.89654       -0.59050
H          2.65186        0.66841        1.83526
C          3.64036        3.18325        1.27567
C          2.76277        2.27116        0.39947
C          2.93648        0.79581        0.78563
C          4.41138        0.39078        0.63798
C          5.32331        1.29285        1.49587
C          5.12258        2.78188        1.15217
H          3.32368        3.09417        2.32222
H          3.49343        4.23982        1.01125
H          3.05618        2.39386       -0.65048
H          1.70660        2.56103        0.43717
H          4.55347       -0.66442        0.90324
H          4.69672        0.47249       -0.41751
H          5.09458        1.13205        2.55678
H          6.37709        1.00435        1.37666
H          5.46401        2.96640        0.12579
H          5.75277        3.41794        1.78980
C          2.38135       -4.28011       -1.37155
C          1.75142       -2.87583       -1.27535
C          2.49654       -2.00455       -0.25742
C          2.51294       -2.68518        1.12023
C          3.15859       -4.08167        1.03920
C          2.42402       -4.96221        0.00985
H          3.40216       -4.19139       -1.76356
H          1.84185       -4.90127       -2.10003
H          0.70840       -2.96116       -0.95584
H          1.71989       -2.38655       -2.25804
H          3.01531       -2.05086        1.86236
H          1.48350       -2.79011        1.48053
H          4.21063       -3.97853        0.74589
H          3.17390       -4.56247        2.02733
H          1.39955       -5.14470        0.35725
H          2.89103       -5.95485       -0.05912
H         -0.98636       -3.54557        0.53907
C         -1.44514       -5.18392       -0.77602
H         -3.85697       -1.29979        0.95905
C         -5.99734        0.21543        0.19766
H         -1.23523       -2.83701       -1.90877
H         -3.27917       -3.17182        1.37202
H         -2.91677       -4.88448        1.47144
H         -3.93686       -4.28065        0.17197
H         -1.24457       -5.96212       -0.03796
H         -2.25622       -5.53685       -1.41371
H         -0.55906       -5.08076       -1.40331
H         -4.44408       -1.69122       -2.25191
H         -5.36024       -2.33642       -0.88719
H         -6.13575       -1.27007       -2.05104
H         -6.30066       -0.56907        0.89167
H         -5.74275        1.09648        0.78911
H         -6.86370        0.46360       -0.41753
Fe        -1.05040        2.67834        0.15472
C         -2.47242        2.96535        1.58468
C         -1.65407        4.15781        1.44285
C         -0.27420        3.78096        1.68647
C         -0.25879        2.36581        2.00336
C         -1.62045        1.87181        2.00366
H         -3.56077        2.92564        1.49404
H         -2.01389        5.16154        1.20420
H          0.58902        4.45094        1.67240
H          0.60731        1.78413        2.32214
H         -1.92399        0.85804        2.26843
Pd        -0.21175       -0.80834        0.93186
