115
-277.93556168
P         -1.68037       -0.06499       -0.09562
P          1.85244       -0.75207        0.43418
C         -1.48888        1.70281       -0.42656
C         -2.60509        2.50040       -0.30214
H         -3.57571        2.04972       -0.16177
C         -2.46195        3.87086       -0.24731
H         -3.30763        4.49802       -0.01582
C         -1.20610        4.44749       -0.34887
C         -0.11351        3.64423       -0.63333
H          0.85621        4.11238       -0.73696
C         -0.25588        2.27175       -0.66917
H          0.60947        1.64931       -0.81999
C         -3.15689       -0.68372       -0.91814
C         -3.73959       -1.83089       -0.43282
H         -3.31117       -2.32828        0.42227
C         -4.87472       -2.33194       -1.03458
H         -5.35322       -3.22193       -0.65822
C         -5.42754       -1.69031       -2.12651
C         -4.83360       -0.54032       -2.60862
H         -5.28030       -0.04571       -3.45681
C         -3.69721       -0.03844       -2.00652
H         -3.22250        0.84867       -2.39384
C         -1.68143       -0.59847        1.65278
C         -1.06499       -1.82596        1.82625
H         -0.61985       -2.31755        0.97726
C         -0.85370       -2.36264        3.09688
C         -1.49756       -1.75184        4.16676
H         -1.38471       -2.16483        5.15525
C         -2.13400       -0.53817        4.00061
H         -2.51743       -0.02104        4.86376
C         -2.13445        0.11557        2.76888
C          1.39943       -0.26690        2.14042
C          0.73912        0.94489        2.15336
H          0.51495        1.42670        1.22038
C          0.19595        1.47459        3.32114
C          0.53022        0.86124        4.52210
H          0.15693        1.26964        5.44630
C          1.19331       -0.34957        4.52413
H          1.33231       -0.87234        5.45533
C          1.53273       -0.99247        3.33334
C         -2.29741        1.61815        2.78028
H         -3.14043        1.88286        3.42804
H         -2.60384        1.94129        1.78847
C         -0.99900        2.38619        3.23028
H         -0.77030        3.21127        2.54692
H         -1.15346        2.86736        4.20222
C          0.32048       -3.27464        3.34836
H          0.34760       -4.06199        2.58772
H          0.16137       -3.81044        4.29082
C          1.68593       -2.49570        3.38868
H          2.25451       -2.76735        4.28609
H          2.32784       -2.82621        2.57646
C          2.80712       -2.26977        0.51324
C          4.05312       -2.23798        1.10462
C          2.18350       -3.47079        0.24984
C          4.62240       -3.41635        1.55172
C          2.75945       -4.64546        0.68489
C          3.94445       -4.61697        1.40433
C          2.85671        0.53805       -0.32171
C          3.07264        0.53305       -1.68035
C          3.27486        1.60379        0.44267
C          3.65008        1.62539       -2.29094
H          2.74600       -0.30687       -2.27020
C          3.85352        2.69682       -0.16622
H          3.10462        1.60459        1.50697
C          4.01809        2.72478       -1.53948
H          3.76331        1.67033       -3.36286
H          4.11699        3.57142        0.40724
Pd         0.16179       -1.02421       -1.18100
Cl        -1.20296       -1.20139       -2.96141
Cl         1.72431       -2.15894       -2.34568
H          2.23198       -5.58071        0.58857
H          1.21162       -3.48682       -0.21660
H          5.53339       -3.40667        2.12954
H          4.52206       -1.28924        1.31456
C         -2.15960        6.78553       -0.09304
C         -0.96257        5.83325        0.19640
C         -0.70031        5.64474        1.72350
F         -2.41750        6.72869       -1.40822
F         -3.23678        6.38370        0.59562
F         -1.81958        8.03564        0.25823
F          0.13070        6.36879       -0.35182
F         -1.73930        4.99790        2.26860
F          0.39451        4.88210        1.85332
F         -0.51721        6.83741        2.30602
C         -6.64643       -3.72610       -2.96679
C         -6.71066       -2.18593       -2.74387
C         -7.89389       -1.76983       -1.82343
F         -7.71832       -4.11439       -3.67464
F         -5.52201       -3.99024       -3.64903
F         -6.61491       -4.35112       -1.78158
F         -6.89878       -1.61168       -3.93523
F         -7.90530       -0.42953       -1.76659
F         -9.04533       -2.22271       -2.34149
F         -7.69593       -2.27230       -0.59588
C          3.05058        4.86268       -2.26253
C          4.35504        4.01215       -2.24369
C          5.54290        4.73744       -1.54730
F          2.11684        4.14718       -2.90651
F          2.64702        5.06962       -1.00174
F          3.27551        6.02374       -2.89463
F          4.70781        3.76970       -3.50889
F          6.56187        3.86778       -1.47583
F          5.89660        5.80472       -2.28019
F          5.18230        5.11447       -0.31266
C          3.33684       -5.59147        3.57036
C          4.27687       -5.75841        2.33278
C          4.10472       -7.13427        1.62666
F          3.54482       -6.59197        4.43657
F          3.62413       -4.41185        4.13708
F          2.06230       -5.57256        3.15675
F          5.54017       -5.66298        2.75398
F          2.81371       -7.32925        1.32435
F          4.83563       -7.10828        0.50215
F          4.54670       -8.10390        2.44243
