111
-148.55100547
P         -2.66146        1.92560        0.04469
P          0.14082        0.50969        0.44959
C         -1.84831        1.96754        1.67043
C         -0.60624        1.39212        1.82887
C         -3.75477        3.40957       -0.16142
C         -3.45165        4.16677       -1.43494
C         -2.47003        2.55925        2.75229
H         -3.45165        2.98774        2.63572
C         -1.83901        2.58283        3.98417
H         -2.32467        3.04626        4.82740
C         -0.59091        2.01027        4.13592
H         -0.10129        2.02560        5.09572
C          0.02508        1.40637        3.05484
H          0.99023        0.93570        3.15943
Pd        -0.99562        1.25511       -1.42411
Cl        -2.28904        1.88698       -3.13695
Cl         0.69521        0.47904       -2.68699
C         -5.17249        2.80115       -0.12098
C         -3.91221        0.56815       -0.10069
H         -4.06188        5.06887       -1.52134
H         -2.40087        4.46145       -1.48247
H         -3.66066        3.54727       -2.30779
H         -5.84632        3.39912       -0.75183
H         -5.58179        2.87151        0.89753
H         -3.54621       -0.12271       -0.87289
C         -5.17640        1.31382       -0.57405
C         -4.08164       -0.15465        1.21792
H         -3.57557        4.05638        0.70759
H         -6.07116        0.79595       -0.19875
H         -5.24557        1.26940       -1.67102
H         -3.13798       -0.58784        1.55533
H         -4.42207        0.53403        1.99344
H         -4.81537       -0.96083        1.14328
C         -1.40313       -3.77568        0.47654
C         -0.90115       -3.20928       -0.72252
C         -0.44103       -1.90594       -0.68466
C         -0.40270       -1.19836        0.48712
C         -0.77734       -1.78064        1.66927
C         -1.24668       -3.08326        1.70504
O         -2.09981       -5.01269        0.44040
C         -0.89389       -3.95935       -2.06274
H         -0.11519       -1.41088       -1.58241
H         -0.71643       -1.19274        2.56812
C         -1.61125       -3.71008        3.05979
C          4.67211        0.83176        0.13956
C          3.92648        1.93060        0.63948
C          2.54758        1.81222        0.71065
C          1.92380        0.63564        0.38781
C          2.64978       -0.46124        0.00471
C          4.02937       -0.41000       -0.09606
O          6.05154        0.98637       -0.16116
C          4.58795        3.24812        1.07388
H          1.93651        2.64516        1.01293
H          2.11668       -1.36441       -0.23499
C          4.79115       -1.68192       -0.49957
C          0.28700       -3.48881       -2.94319
C         -0.72064       -5.47411       -1.85216
C         -2.20629       -3.67217       -2.80809
C         -3.07961       -3.39939        3.38778
C         -1.38153       -5.23238        3.04593
C         -0.72208       -3.13128        4.18378
C         -3.50083       -4.87869        0.23570
H          1.22828       -3.55768       -2.39876
H          0.37200       -4.10516       -3.83777
H          0.15864       -2.46009       -3.27628
H         -1.55830       -5.89701       -1.30334
H         -0.65380       -5.99718       -2.80578
H          0.18753       -5.68118       -1.28703
H         -3.06719       -4.00367       -2.23226
H         -2.32034       -2.60338       -2.98852
H         -2.22826       -4.18139       -3.77115
H         -3.36722       -3.83832        4.34279
H         -3.24193       -2.32370        3.44972
H         -3.74615       -3.79147        2.62332
H         -1.57483       -5.66708        4.02632
H         -2.03693       -5.72608        2.33279
H         -0.35316       -5.46264        2.76942
H          0.33337       -3.22337        3.92875
H         -0.93979       -2.08068        4.37023
H         -0.88777       -3.66298        5.12052
H         -3.78904       -5.39994       -0.67699
H         -4.03704       -5.33072        1.06998
H         -3.77487       -3.82594        0.15465
C          6.30764        1.41542       -1.49264
C          3.75795        3.93503        2.18240
C          5.99152        2.99930        1.65579
C          4.67525        4.19564       -0.13203
C          4.05394       -2.94303        0.00778
C          4.88148       -1.75109       -2.03166
C          6.20017       -1.70800        0.11965
H          4.28727        4.79962        2.58233
H          2.80052        4.29283        1.80683
H          3.56847        3.24801        3.00680
H          5.94373        2.29343        2.48431
H          6.66478        2.58937        0.90712
H          6.43306        3.92512        2.02373
H          3.68326        4.39921       -0.53454
H          5.12717        5.14624        0.15007
H          5.27336        3.76345       -0.93054
H          3.85534       -2.87213        1.07686
H          3.10645       -3.09290       -0.50751
H          4.65404       -3.83657       -0.16260
H          5.40431       -2.65176       -2.35230
H          3.88611       -1.76152       -2.47542
H          5.41271       -0.89200       -2.43429
H          6.71492       -2.63895       -0.11663
H          6.14422       -1.61694        1.20388
H          6.81282       -0.89056       -0.25180
H          5.37043        1.56405       -2.03059
H          6.86897        2.34944       -1.47394
H          6.90865        0.66763       -2.00967
