75
-122.81307584
P          1.90275       -0.52823       -0.15361
C          3.35082       -1.21726       -0.98580
C          4.29578       -1.85143       -0.21000
C          5.42637       -2.39044       -0.79714
C          5.60734       -2.28808       -2.16176
C          4.66406       -1.64403       -2.93657
C          3.53836       -1.10630       -2.34357
H          2.81337       -0.57484       -2.93399
H          4.80764       -1.55423       -4.00087
H          6.48729       -2.70743       -2.62172
H          6.16335       -2.88942       -0.18956
H          4.14402       -1.92429        0.85517
C          1.62954       -1.57265        1.28108
C          1.89380       -1.10107        2.54653
C          1.80248       -1.95483        3.63031
C          1.45315       -3.27668        3.43630
C          1.19054       -3.74545        2.16421
C          1.28307       -2.88937        1.08137
H          1.10360       -3.24456        0.07853
H          0.91515       -4.77628        2.01376
H          1.37816       -3.94240        4.28054
H          2.00300       -1.58806        4.62346
H          2.17396       -0.06878        2.67952
C          2.26043        1.16223        0.33457
C          3.41265        1.81921       -0.02764
C          3.58457        3.16136        0.28278
C          2.55073        3.83536        0.93237
C          1.38636        3.19022        1.28698
C          1.24238        1.82260        1.00464
O          0.07548        1.12252        1.34983
C         -1.13594        1.78130        1.08712
C         -1.29729        3.14899        1.35956
C         -2.49416        3.76051        1.05972
C         -3.54580        3.04917        0.48338
C         -3.36499        1.70231        0.20186
C         -2.18085        1.07485        0.51069
P         -1.79276       -0.63912        0.10142
C         -1.74080       -1.58980        1.63217
C         -1.41469       -0.98052        2.82200
C         -1.47017       -1.69571        4.00354
C         -1.84640       -3.02390        3.98513
C         -2.16363       -3.63659        2.78910
C         -2.11306       -2.91492        1.61007
H         -2.37565       -3.37624        0.67145
H         -2.45451       -4.67404        2.77351
H         -1.88555       -3.58493        4.90452
H         -1.21137       -1.21881        4.93453
H         -1.09958        0.04914        2.81790
C         -3.10179       -1.37170       -0.89814
C         -4.38250       -1.38719       -0.39363
C         -5.40471       -1.96457       -1.12497
C         -5.13451       -2.53211       -2.35404
C         -3.84561       -2.52992       -2.84867
C         -2.82594       -1.95258       -2.11467
H         -1.81560       -1.95224       -2.48992
H         -3.63326       -2.97637       -3.80621
H         -5.92992       -2.98097       -2.92636
H         -6.40870       -1.97387       -0.73359
H         -4.57459       -0.96212        0.57915
Pd        -0.05232       -0.05017       -1.42445
Cl        -1.76665        0.94227       -2.52231
Cl         1.35091        0.93965       -2.88015
H         -4.14614        1.15305       -0.29219
C         -4.81443        3.73266        0.11649
H         -4.77931        4.08205       -0.91615
H         -4.99790        4.59510        0.75857
H         -5.66611        3.05828        0.21517
H         -2.61036        4.81010        1.26463
S          0.05211        4.04938        2.07893
H          2.65414        4.88355        1.15094
C          4.81737        3.88156       -0.13255
H          4.17437        1.29118       -0.57476
H          4.70627        4.28835       -1.13843
H          5.03709        4.70871        0.54367
H          5.68060        3.21472       -0.13235
