58
-89.86275576
P          1.56219        0.34940        0.74903
C          1.98590        2.00585        0.19231
C          2.07814        3.05419        1.08008
C          2.38115        4.32129        0.61527
C          2.59348        4.52867       -0.73359
C          2.50851        3.47255       -1.61893
C          2.20496        2.20817       -1.15050
H          2.13887        1.36807       -1.82276
H          1.90883        2.88200        2.13051
C          3.04588       -0.66238        0.79432
C          4.25297       -0.05386        1.05409
C          5.40974       -0.81123        1.10307
C          5.34789       -2.17451        0.89230
C          4.13455       -2.78098        0.63371
C          2.97967       -2.02133        0.58663
H          2.02921       -2.48331        0.37335
H          4.28482        1.01237        1.21321
C          0.83502        0.35775        2.44112
C          0.16885       -0.97943        2.75789
C         -1.31660       -1.02149        2.43327
P         -1.74140       -0.48078        0.71903
C         -3.11288       -1.46063        0.09035
C         -4.13033       -0.85634       -0.61276
C         -5.16231       -1.61991       -1.12753
C         -5.16370       -2.98804       -0.94234
C         -4.13303       -3.59352       -0.25134
C         -3.10191       -2.82661        0.26165
H         -2.27778       -3.29290        0.77769
H         -4.10551        0.20922       -0.77317
C         -2.17797        1.26348        0.81113
C         -1.27216        2.22379        0.42542
C         -1.59454        3.56314        0.52632
C         -2.82790        3.93575        1.02162
C         -3.73150        2.97162        1.42336
C         -3.40170        1.63151        1.32293
H         -4.09240        0.86922        1.64727
H         -0.30184        1.92756        0.07248
Pd         0.06651       -0.59902       -0.75095
Cl         1.80222       -0.86933       -2.15628
Cl        -1.40240       -1.44393       -2.22882
H         -1.72524       -2.02297        2.58354
H         -1.87288       -0.35836        3.09943
H          0.68991       -1.77410        2.20629
H          0.31275       -1.23091        3.82057
H          1.66306        0.57208        3.12146
H          0.12515        1.18184        2.52853
H          2.44993        5.14575        1.30582
H          2.67776        3.63163       -2.67118
H          6.35649       -0.33702        1.30318
H          4.08675       -3.84412        0.46418
H         -5.95907       -1.14778       -1.67848
H         -4.12645       -4.66291       -0.11845
H         -0.88006        4.31204        0.22645
H         -4.69146        3.26172        1.81783
H          2.82878        5.51626       -1.09557
H          6.24835       -2.76585        0.92718
H         -5.96526       -3.58510       -1.34574
H         -3.08313        4.97990        1.10103
