111
-148.55232671
P         -2.63450        1.99172        0.49203
P          0.14241        0.46315        0.52613
C         -1.77516        1.69853        2.06717
C         -0.54451        1.07832        2.07063
C         -3.65227        3.53772        0.59347
C         -3.33143        4.49980       -0.52861
C         -2.35082        2.08143        3.26246
H         -3.32233        2.54743        3.26189
C         -1.68631        1.84961        4.45458
H         -2.13630        2.14912        5.38703
C         -0.45018        1.23238        4.45195
H          0.06524        1.04896        5.38031
C          0.12079        0.84017        3.25470
H          1.07612        0.33923        3.23362
Pd        -1.04355        1.54220       -1.13522
Cl        -2.47799        2.38561       -2.63667
Cl         0.56527        1.04921       -2.62278
C         -5.09904        3.00125        0.56368
C         -3.95616        0.74392        0.14257
H         -3.58487        4.06113       -1.49434
H         -3.89646        5.43011       -0.43410
H         -2.26793        4.74877       -0.54753
H         -5.75199        3.73525        0.06926
H         -5.48492        2.90676        1.58936
H         -3.64336        0.19039       -0.75369
C         -5.19047        1.62180       -0.14806
C         -4.13090       -0.20003        1.31225
H         -3.42181        4.00294        1.56115
H         -6.10205        1.08727        0.15677
H         -5.28714        1.77966       -1.23243
H         -3.20205       -0.72938        1.53446
H         -4.41865        0.34917        2.21067
H         -4.90555       -0.94508        1.11548
C         -1.38783       -3.76236       -0.20660
C         -0.85571       -3.00208       -1.27898
C         -0.41032       -1.72004       -1.01186
C         -0.41706       -1.21774        0.26169
C         -0.82275       -1.98873        1.31880
C         -1.27838       -3.28175        1.12385
O         -2.06543       -4.98273       -0.46827
C         -0.79271       -3.52439       -2.72197
H         -0.06302       -1.07822       -1.80279
H         -0.79026       -1.55930        2.30454
C         -1.67100       -4.12868        2.34443
C          4.67489        0.62425        0.17217
C          4.03704       -0.57513        0.57997
C          2.65539       -0.58257        0.67160
C          1.92488        0.55479        0.44649
C          2.54250        1.74309        0.15902
C          3.92165        1.82036        0.04966
O          6.05785        0.61817       -0.15142
C          4.80910       -1.86995        0.87758
H          2.12408       -1.49000        0.90190
H          1.92570        2.61058       -0.00178
C          4.57154        3.18092       -0.24669
C          0.40996       -2.90557       -3.47117
C         -0.60341       -5.05162       -2.75351
C         -2.08333       -3.13296       -3.45760
C         -0.82519       -3.73240        3.57608
C         -3.15365       -3.89620        2.67275
C         -1.41357       -5.62443        2.08624
C         -3.46107       -4.82973       -0.69468
H          1.33240       -3.04967       -2.90918
H          0.53722       -3.36956       -4.44888
H          0.27517       -1.83829       -3.63992
H         -1.45312       -5.56616       -2.31195
H         -0.49508       -5.41211       -3.77614
H          0.28748       -5.33911       -2.19612
H         -2.06467       -3.47938       -4.49053
H         -2.95794       -3.56205       -2.97433
H         -2.20772       -2.05024       -3.46663
H         -1.00734       -4.41470        4.40608
H          0.23876       -3.76580        3.34252
H         -1.06827       -2.73060        3.92723
H         -3.33721       -2.84831        2.90801
H         -3.79039       -4.16363        1.83285
H         -3.46107       -4.49220        3.53164
H         -2.03830       -6.00100        1.28012
H         -0.37334       -5.79244        1.80926
H         -1.62856       -6.21829        2.97427
H         -4.01631       -5.41987        0.03423
H         -3.74809       -3.78086       -0.60833
H         -3.71254       -5.19403       -1.69058
C          6.33106        0.32408       -1.51587
C          4.06256       -2.71935        1.93204
C          4.93459       -2.69335       -0.41345
C          6.20408       -1.56615        1.45325
C          5.97600        3.27544        0.37678
C          4.65071        3.38276       -1.76767
C          3.73356        4.32954        0.35952
H          3.84035       -2.12763        2.81972
H          3.12699       -3.11748        1.54182
H          4.66756       -3.57156        2.24079
H          3.94982       -2.93869       -0.81076
H          5.47266       -2.14319       -1.18159
H          5.46750       -3.62627       -0.23156
H          6.72566       -2.48443        1.72197
H          6.82331       -1.03493        0.73492
H          6.12393       -0.94759        2.34652
H          6.40846        4.26338        0.22044
H          5.93274        3.08984        1.44946
H          6.65470        2.54735       -0.06009
H          5.09157        4.34897       -2.01142
H          5.25426        2.60987       -2.23722
H          3.65701        3.34207       -2.21327
H          4.25530        5.28143        0.26301
H          3.54735        4.15595        1.41907
H          2.77465        4.43905       -0.14470
H          6.95223       -0.56905       -1.58084
H          5.40152        0.16169       -2.06305
H          6.87831        1.15205       -1.96620
