100
-131.97333188
C         -1.56962        3.91247       -1.36854
C         -2.30867        2.64708       -1.44480
C         -0.17851        3.62224       -1.39421
C          0.01461        2.14872       -1.50254
C          1.17833        1.59153       -2.25337
C         -1.37120        1.56412       -1.53361
C         -1.78068        0.17529       -1.99206
C         -0.87119       -0.44038       -3.03655
Cl         1.09883       -0.49281        2.72728
Cl        -1.77146       -1.60161        2.28048
C          3.24952        0.62293       -3.87531
C          2.50966        1.71441       -4.28553
C          2.97305        0.02510       -2.65420
C          1.50014        2.19429       -3.48943
C          1.95224        0.48167       -1.85412
H         -3.39248        2.55164       -1.53811
H          0.62310        4.36296       -1.44362
H          0.06957       -0.75728       -2.58850
H         -1.32215       -1.31732       -3.50635
H         -0.64041        0.27350       -3.83061
H          4.04951        0.24773       -4.49237
H          2.72548        2.18804       -5.22957
H          3.58908       -0.79435       -2.32199
H          0.91546        3.03734       -3.81514
H         -2.01445        4.91080       -1.35562
P          1.85047       -0.26963       -0.21467
H         -2.77896        0.28182       -2.43158
P         -2.03476       -0.96651       -0.55370
H         -3.05060       -2.82882       -1.73601
C         -1.94384       -3.79883       -0.14489
C         -2.11374       -2.69675       -1.19550
C         -3.18337       -3.96252        0.73565
H         -3.66779        0.63960        0.16947
C         -4.91379       -1.03514       -0.37119
C         -3.63079       -0.44846        0.22343
H         -4.82495       -2.13456       -0.34510
C         -6.12007       -0.64125        0.48746
H          3.56041       -1.91798       -0.62942
H          2.76729        0.58230        1.85734
C          3.65136        3.16178        1.39717
C          2.75828        2.26950        0.51602
C          3.00089        0.78254        0.80627
C          4.47819        0.43548        0.56728
C          5.40245        1.32068        1.42953
C          5.13728        2.81822        1.17864
H          3.39127        3.00574        2.45145
H          3.45848        4.22553        1.19950
H          2.98889        2.46166       -0.53918
H          1.69668        2.51791        0.62762
H          4.66389       -0.62777        0.76657
H          4.70901        0.58284       -0.49444
H          5.23176        1.09525        2.48959
H          6.45766        1.07559        1.24426
H          5.41953        3.06869        0.14826
H          5.77908        3.44062        1.81815
C          2.30940       -4.28517       -1.36274
C          1.73419       -2.85779       -1.26683
C          2.52895       -2.00456       -0.26977
C          2.56302       -2.67546        1.11224
C          3.15114       -4.09689        1.02536
C          2.35496       -4.95548        0.02386
H          3.32452       -4.23811       -1.77618
H          1.73213       -4.89232       -2.07386
H          0.69236       -2.90220       -0.93301
H          1.70685       -2.37533       -2.25322
H          3.11507       -2.05490        1.83067
H          1.54285       -2.73589        1.50745
H          4.19794       -4.03721        0.70267
H          3.17483       -4.57083        2.01664
H          1.33158       -5.08877        0.39640
H          2.77634       -5.96835       -0.04491
H         -1.09982       -3.50662        0.50567
C         -1.58969       -5.13164       -0.81232
H         -3.57595       -0.69801        1.28293
C         -5.13525       -0.62073       -1.82638
H         -1.31971       -2.78297       -1.93758
H         -3.03261       -4.73376        1.49260
H         -4.04602       -4.25755        0.13779
H         -3.43463       -3.03879        1.25544
H         -1.41880       -5.91636       -0.07369
H         -2.40098       -5.46184       -1.46178
H         -0.69248       -5.04897       -1.42693
H         -6.24752        0.44177        0.49488
H         -7.04414       -1.07912        0.10673
H         -5.99762       -0.96454        1.52248
H         -5.13948        0.46541       -1.92268
H         -4.36330       -1.01724       -2.48588
H         -6.09462       -0.98406       -2.19860
Fe        -1.07169        2.69144        0.16961
C         -2.59168        2.91918        1.55900
C         -1.74531        4.09537        1.45409
C         -0.38133        3.71981        1.78159
C         -0.38324        2.29341        2.03741
C         -1.74254        1.80370        1.91765
H         -3.67439        2.88762        1.41730
H         -2.09065        5.10998        1.23951
H          0.48115        4.38900        1.83372
H          0.46602        1.69339        2.36729
H         -2.05835        0.78017        2.12449
Pd        -0.17513       -0.80067        0.87607
