75
-122.81089865
P          1.91697       -0.51347       -0.18670
C          3.37016       -1.18991       -1.02063
C          4.32421       -1.80490       -0.24052
C          5.45930       -2.33737       -0.82502
C          5.63494       -2.24849       -2.19130
C          4.68161       -1.62489       -2.97066
C          3.55152       -1.09321       -2.38039
H          2.81805       -0.57862       -2.97509
H          4.82087       -1.54606       -4.03638
H          6.51845       -2.66266       -2.64911
H          6.20376       -2.82091       -0.21408
H          4.17522       -1.86849        0.82573
C          1.62000       -1.59399        1.21645
C          1.91088       -1.17207        2.49346
C          1.79492       -2.05542        3.55088
C          1.39362       -3.35627        3.31890
C          1.10459       -3.77497        2.03511
C          1.22265       -2.88978        0.97854
H          1.02189       -3.20599       -0.03327
H          0.78840       -4.78923        1.85520
H          1.29849       -4.04450        4.14281
H          2.01590       -1.72776        4.55333
H          2.23059       -0.15549        2.65568
C          2.26904        1.16646        0.34550
C          3.42462        1.82517       -0.00323
C          3.59920        3.16299        0.32372
C          2.56297        3.83257        0.97361
C          1.39478        3.18656        1.31366
C          1.24912        1.82152        1.01964
O          0.07723        1.12425        1.35684
C         -1.13252        1.78597        1.08810
C         -1.28823        3.15513        1.35608
C         -2.47551        3.77534        1.03671
C         -3.52431        3.07091        0.44688
C         -3.35242        1.72066        0.17627
C         -2.17905        1.08402        0.50708
P         -1.80544       -0.64041        0.13012
C         -1.75983       -1.56440        1.67753
C         -1.38702       -0.94927        2.85054
C         -1.44094       -1.64381        4.04436
C         -1.86271       -2.95826        4.05544
C         -2.22725       -3.57754        2.87647
C         -2.17788       -2.87601        1.68532
H         -2.47541       -3.34318        0.76019
H         -2.55381       -4.60441        2.88361
H         -1.90088       -3.50350        4.98433
H         -1.14532       -1.16194        4.96174
H         -1.03579        0.06805        2.82345
C         -3.09749       -1.39756       -0.87008
C         -4.39645       -1.36557       -0.41581
C         -5.39908       -1.96877       -1.15336
C         -5.09111       -2.61068       -2.33618
C         -3.78389       -2.65809       -2.77766
C         -2.78380       -2.05476       -2.03749
H         -1.75876       -2.09185       -2.36940
H         -3.54198       -3.16307       -3.69841
H         -5.87144       -3.07942       -2.91326
H         -6.41758       -1.94045       -0.80248
H         -4.61851       -0.88618        0.52465
Pd        -0.08262        0.00179       -1.37749
Cl        -1.75889        0.77218       -2.67944
Cl         1.37169        0.95773       -2.81129
H         -4.13200        1.17576       -0.32487
C         -4.78119        3.76431        0.05852
H         -4.97121        4.62530        0.70061
H         -5.63912        3.09538        0.13808
H         -4.72409        4.11769       -0.97176
H         -2.58624        4.82644        1.23688
S          0.05599        4.04500        2.09789
H          2.66686        4.87853        1.20248
C          4.83562        3.88474       -0.07787
H          4.18671        1.30229       -0.55492
H          5.69700        3.21554       -0.08252
H          4.72962        4.30418       -1.07910
H          5.05488        4.70292        0.60932
