59
-75.80114829
Cl         1.67894        0.49382        2.34993
P          1.61120       -0.15797       -0.88401
P         -1.55355       -0.14674       -0.77209
C          0.59710        0.10770       -2.40627
H          0.36505        1.17212       -2.49116
H          1.19204       -0.16764       -3.28299
C         -0.66113       -0.70346       -2.28678
H         -0.43148       -1.76750       -2.18733
H         -1.32155       -0.58351       -3.15130
C          2.68964       -1.64201       -1.17979
H          2.51926       -1.88851       -2.23653
C          2.92750        1.12690       -0.66039
H          3.02973        1.26652        0.42269
C         -3.04969       -1.15673       -0.35872
H         -3.08220       -1.18789        0.73793
C         -2.39885        1.45760       -1.12870
H         -1.83476        1.96940       -1.91798
C          4.12144       -1.10089       -1.00895
H          4.48473       -1.33774       -0.00188
H          4.80972       -1.61829       -1.69421
C          4.18174        0.43600       -1.22202
H          4.25664        0.65708       -2.29578
H          5.08955        0.86229       -0.76816
C         -4.23272       -0.32615       -0.91147
H         -4.82248       -0.94985       -1.59786
H         -4.92169       -0.07267       -0.09257
C         -3.77411        0.97595       -1.63243
H         -4.52306        1.77097       -1.50641
H         -3.72024        0.79262       -2.71647
C          2.33375       -2.84787       -0.31011
H          2.92634       -3.71229       -0.64073
H          1.29014       -3.12394       -0.50950
C          2.59046        2.45827       -1.32077
H          3.47713        3.10681       -1.29110
H          2.39635        2.28811       -2.38751
C         -2.95710       -2.57536       -0.90468
H         -3.93508       -3.06709       -0.80623
H         -2.76480       -2.52784       -1.98446
C         -2.45801        2.32043        0.12776
H         -3.06689        1.80255        0.88100
H         -1.45471        2.38331        0.57060
C          2.52932       -2.64555        1.18562
H          3.58041       -2.51743        1.44714
H          2.15974       -3.49637        1.76286
H          2.00268       -1.76160        1.54168
C          1.41077        3.16231       -0.66765
H          0.51091        2.54822       -0.70708
H          1.17934        4.11371       -1.15185
H          1.60857        3.36805        0.38603
C         -1.88933       -3.40086       -0.20283
H         -0.91534       -2.91458       -0.25866
H         -1.78788       -4.39866       -0.63557
H         -2.11909       -3.52296        0.85745
C         -2.99777        3.72107       -0.12325
H         -2.39212        4.24875       -0.86254
H         -4.02021        3.69629       -0.50307
H         -3.00376        4.32495        0.78704
Cl        -1.53392        0.02027        2.41492
Pd         0.08264       -0.00886        0.85694
