171
-217.84359693
P         -1.55769        0.39561       -0.32636
P          1.61776       -0.40754       -0.41625
C         -0.89135        1.33926       -1.70143
C          0.88569       -1.36275       -1.75094
C         -0.13280        0.72129       -2.68854
C          0.44420        1.51757       -3.69597
C          0.20355        2.88162       -3.70323
C         -0.57874        3.47031       -2.73263
C         -1.11649        2.69399       -1.72502
C          1.10721       -2.71837       -1.77748
C          0.49813       -3.50497       -2.73504
C         -0.35028       -2.92549       -3.65396
C         -0.58545       -1.56086       -3.64755
C          0.06080       -0.75434       -2.69023
Cl         1.67192        0.25559        2.83639
Cl        -1.58357       -0.39242        2.77207
C         -1.51991       -0.98138       -4.65148
C          1.28401        0.91219       -4.76541
H         -0.76751        4.53107       -2.75773
H         -1.71765        3.14662       -0.95298
H          1.76141       -3.16622       -1.04749
H          0.67962       -4.56708       -2.75842
H          0.63592        3.48465       -4.48378
H         -0.84360       -3.53627       -4.39126
C         -3.92612       -3.28193       -1.46922
C         -2.92709       -3.39719       -0.50985
C         -2.19160       -2.26138       -0.20132
C         -2.44771       -1.07166       -0.83483
C         -3.43392       -0.97335       -1.78540
C         -4.20093       -2.08391       -2.11844
H         -4.52561       -4.14026       -1.70694
H         -1.42806       -2.29807        0.55680
H         -3.60997       -0.01725       -2.24849
C         -4.31209        2.96739        2.20459
C         -4.86050        1.96779        1.41003
C         -3.99337        1.20569        0.64067
C         -2.64188        1.44231        0.66085
C         -2.11604        2.43438        1.45134
C         -2.94459        3.21140        2.25152
H         -4.95998        3.57072        2.81214
H         -4.37732        0.40829        0.02924
H         -1.05024        2.58311        1.45478
C          4.34923       -2.90722        2.21181
C          3.00409       -3.24696        2.12435
C          2.19848       -2.49311        1.28163
C          2.71564       -1.43371        0.57823
C          4.04297       -1.10371        0.68885
C          4.88920       -1.83382        1.51237
H          4.99016       -3.48877        2.84565
H          1.15078       -2.72110        1.18451
H          4.41976       -0.26053        0.13707
C          3.89158        3.33883       -1.53984
C          2.87086        3.42205       -0.60013
C          2.16234        2.26460       -0.30850
C          2.46921        1.08114       -0.93251
C          3.48045        1.01411       -1.85922
C          4.22267        2.14629       -2.17441
H          4.45198        4.22335       -1.77292
H          1.37445        2.28185        0.42512
H          3.70559        0.06659       -2.31983
Pd         0.07036       -0.03057        1.29548
C         -2.80390       -4.47499        1.74983
C         -2.63172       -4.70533        0.23622
C         -1.18569       -5.13736       -0.06082
C         -3.58043       -5.83894       -0.19701
H         -3.81917       -4.15002        1.97605
H         -2.60867       -5.38985        2.30894
H         -2.12122       -3.70948        2.11590
H         -0.93110       -6.05014        0.47742
H         -1.05282       -5.32452       -1.12579
H         -0.47832       -4.36358        0.23273
H         -3.35638       -6.75801        0.34439
H         -4.61929       -5.58037        0.00721
H         -3.47859       -6.05048       -1.26129
C         -6.68890       -2.22051       -2.32394
C         -5.37802       -1.99987       -3.10098
C         -5.23148       -3.08353       -4.18620
C         -5.44670       -0.62379       -3.79238
H         -7.55183       -2.15576       -2.98646
H         -6.70421       -3.20054       -1.84814
H         -6.80494       -1.46894       -1.54320
H         -5.25564       -4.08415       -3.75684
H         -6.04066       -3.01709       -4.91331
H         -4.28931       -2.97261       -4.72132
H         -6.27053       -0.59034       -4.50521
H         -5.60935        0.17343       -3.06763
H         -4.52850       -0.41069       -4.33832
C         -7.16524        2.60013        2.28726
C         -6.36388        1.66072        1.36626
C         -6.59558        0.20854        1.82541
C         -6.87523        1.83399       -0.07607
H         -7.04091        3.64115        1.98962
H         -8.22957        2.36934        2.24311
H         -6.84827        2.49611        3.32479
H         -6.09003       -0.50013        1.17027
H         -6.21400        0.05937        2.83523
H         -7.65747       -0.03660        1.82497
H         -6.69887        2.85033       -0.42768
H         -6.37050        1.15194       -0.75908
H         -7.94509        1.63552       -0.13767
C         -0.85135        4.32983        3.17007
C         -2.39189        4.29750        3.18543
C         -2.85058        4.01181        4.62789
C         -2.91705        5.67074        2.73136
H         -0.47195        5.08399        3.85934
H         -0.43597        3.36782        3.47018
H         -0.47714        4.57553        2.17777
H         -3.93589        4.04093        4.71456
H         -2.51511        3.02542        4.94778
H         -2.44255        4.74825        5.31993
H         -4.00523        5.70881        2.76826
H         -2.53227        6.46627        3.36924
H         -2.60932        5.88031        1.70694
C          2.16229       -5.59106        1.91980
C          2.39842       -4.42750        2.89718
C          1.05889       -4.00326        3.53423
C          3.33280       -4.90447        4.02634
H          1.50789       -5.28774        1.10406
H          3.10335       -5.92439        1.48269
H          1.70279       -6.44051        2.42482
H          1.19384       -3.12474        4.16480
H          0.31311       -3.76167        2.77903
H          0.65008       -4.80297        4.15145
H          3.57382       -4.08532        4.70367
H          2.86039       -5.69317        4.61181
H          4.26263       -5.30908        3.62771
C          7.10499       -2.24437        2.69892
C          6.36904       -1.43686        1.61232
C          6.47600        0.05954        1.96711
C          7.04932       -1.69808        0.25741
H          8.14340       -1.92370        2.78188
H          6.63643       -2.10579        3.67315
H          7.10935       -3.30859        2.46445
H          7.51712        0.35778        2.08904
H          6.04245        0.68739        1.18979
H          5.95216        0.27144        2.89894
H          8.10163       -1.41596        0.28631
H          6.98825       -2.75347       -0.00751
H          6.56993       -1.12766       -0.53652
C          1.09460        5.14791       -0.23085
C          2.52430        4.72063        0.14204
C          3.48846        5.86515       -0.22417
C          2.61648        4.47632        1.66088
H          0.80114        6.04942        0.30666
H          1.02412        5.35379       -1.29833
H          0.37615        4.36475        0.00588
H          3.43353        6.10080       -1.28679
H          3.23798        6.77183        0.32648
H          4.51784        5.60352        0.02035
H          2.38772        5.38500        2.21736
H          1.91972        3.70437        1.98415
H          3.61995        4.15397        1.93778
C          6.38745        0.97063       -2.64489
C          5.39921        2.03545       -3.15668
C          6.15643        3.37059       -3.29569
C          4.87451        1.62697       -4.54336
H          6.74034        1.22255       -1.64497
H          5.92062       -0.01240       -2.60054
H          7.25511        0.89586       -3.30016
H          5.50595        4.15282       -3.68648
H          6.55455        3.69729       -2.33514
H          6.99617        3.26857       -3.98306
H          4.35133        0.67245       -4.50130
H          4.18457        2.37748       -4.92767
H          5.69295        1.52749       -5.25619
H         -2.43803       -1.56655       -4.70440
H          0.67428        0.61210       -5.61820
H         -1.07145       -0.97665       -5.64583
H         -1.79667        0.04289       -4.39853
H          1.81319        0.03087       -4.40000
H          2.02859        1.62198       -5.12620
