171
-217.84594292
P         -1.58144        0.37556       -0.35006
P          1.60260       -0.44386       -0.29831
C         -0.83829        1.29956       -1.69823
C          0.88546       -1.42169       -1.62565
C         -0.06584        0.65042       -2.65410
C          0.55515        1.41757       -3.65843
C          0.35877        2.78849       -3.68132
C         -0.42524        3.41080       -2.73291
C         -1.01840        2.66043       -1.73662
C          1.06865       -2.78280       -1.59341
C          0.47114       -3.58824       -2.54250
C         -0.32512       -3.02050       -3.51432
C         -0.52397       -1.65081       -3.56494
C          0.10644       -0.82723       -2.61234
Cl         1.54395        0.29612        2.89437
Cl        -1.64080       -0.53261        2.83363
C         -1.40301       -1.08154       -4.62317
C          1.39797        0.77876       -4.70634
H         -0.57478        4.47746       -2.76876
H         -1.62678        3.13778       -0.98548
H          1.68099       -3.21947       -0.82137
H          0.62184       -4.65510       -2.51810
H          0.82980        3.37043       -4.45551
H         -0.80775       -3.64491       -4.24723
C         -3.90618       -3.27816       -1.64682
C         -2.91009       -3.42071       -0.68939
C         -2.20677       -2.28416       -0.31233
C         -2.47809       -1.07330       -0.89836
C         -3.45180       -0.95168       -1.85921
C         -4.19510       -2.05998       -2.24930
H         -4.48945       -4.13922       -1.91614
H         -1.44896       -2.33060        0.45011
H         -3.63168        0.01810       -2.29116
C         -4.29947        3.02466        2.13724
C         -4.86914        2.03580        1.34498
C         -4.01819        1.23776        0.59178
C         -2.66106        1.44047        0.62240
C         -2.11660        2.42474        1.40979
C         -2.92605        3.22519        2.20517
H         -4.94906        3.65213        2.71786
H         -4.40847        0.44468       -0.01998
H         -1.04878        2.55632        1.41016
C          4.47224       -2.86313        2.24805
C          3.11950       -3.18153        2.28284
C          2.26067       -2.45341        1.47050
C          2.73803       -1.43508        0.68375
C          4.07479       -1.12395        0.67367
C          4.97391       -1.84001        1.45300
H          5.15867       -3.41591        2.86127
H          1.20553       -2.66860        1.46510
H          4.40935       -0.30633        0.06069
C          3.77930        3.33527       -1.49564
C          2.83081        3.39586       -0.48197
C          2.15532        2.22746       -0.15801
C          2.42034        1.05883       -0.82724
C          3.36406        1.01258       -1.82382
C          4.06873        2.15830       -2.17582
H          4.32622        4.22189       -1.75550
H          1.43369        2.22191        0.64082
H          3.55544        0.07081       -2.30930
Pd        -0.03038       -0.05426        1.33556
C         -2.41486       -5.84125       -1.14887
C         -2.64686       -4.78928       -0.04768
C         -3.86481       -5.18702        0.80393
C         -1.39986       -4.75504        0.85684
H         -1.58478       -5.54904       -1.79091
H         -2.17995       -6.81330       -0.71557
H         -3.29640       -5.96356       -1.77664
H         -3.70720       -6.15244        1.28445
H         -4.04694       -4.44682        1.58289
H         -4.76460       -5.25821        0.19364
H         -1.19276       -5.74235        1.26932
H         -0.52332       -4.43756        0.29300
H         -1.53878       -4.07246        1.69483
C         -5.41698       -0.56494       -3.90678
C         -5.35269       -1.95935       -3.25323
C         -6.67731       -2.21553       -2.51190
C         -5.17590       -3.01049       -4.36606
H         -4.48617       -0.32940       -4.42184
H         -6.22222       -0.51827       -4.63980
H         -5.60581        0.20976       -3.16402
H         -6.69129       -3.20860       -2.06384
H         -6.81925       -1.48775       -1.71366
H         -7.52629       -2.14178       -3.19128
H         -5.19695       -4.02315       -3.96580
H         -5.97360       -2.93170       -5.10454
H         -4.22686       -2.87529       -4.88268
C         -7.06846        3.14417        0.86549
C         -6.39210        1.84235        1.33298
C         -6.86815        1.48836        2.75359
C         -6.81226        0.70611        0.37946
H         -8.15147        3.02846        0.82602
H         -6.84666        3.97091        1.53923
H         -6.72205        3.42128       -0.13003
H         -7.94528        1.32361        2.77486
H         -6.37994        0.58023        3.10676
H         -6.63857        2.28669        3.45834
H         -7.89520        0.58308        0.37681
H         -6.50200        0.91920       -0.64330
H         -6.37374       -0.24410        0.68394
C         -2.23754        5.62536        2.26549
C         -2.31820        4.32741        3.08500
C         -0.90407        3.92894        3.55735
C         -3.18184        4.56686        4.34005
H         -1.78935        6.42988        2.84828
H         -1.63625        5.47999        1.36874
H         -3.23039        5.94644        1.95096
H         -0.91880        2.95410        4.04454
H         -0.20297        3.88289        2.72648
H         -0.51232        4.65532        4.26911
H         -2.69721        5.27224        5.01500
H         -4.15540        4.98272        4.08418
H         -3.33868        3.63561        4.88410
C          2.10322       -5.46615        2.27239
C          2.55298       -4.29991        3.16861
C          1.34911       -3.76303        3.96933
C          3.60257       -4.81952        4.17006
H          1.35425       -5.13889        1.55327
H          2.94669       -5.86953        1.71239
H          1.67247       -6.27283        2.86524
H          1.63747       -2.89352        4.55955
H          0.53178       -3.46443        3.31478
H          0.96391       -4.52166        4.65025
H          3.17058       -5.57617        4.82493
H          4.44706       -5.27721        3.65547
H          3.97625       -4.01077        4.79788
C          6.87888       -1.08106        2.89256
C          6.47394       -1.51360        1.47180
C          6.81833       -0.37066        0.49556
C          7.27414       -2.76258        1.05877
H          6.69993       -1.87714        3.61436
H          7.93674       -0.82247        2.93558
H          6.30448       -0.20980        3.20683
H          7.88703       -0.15730        0.51057
H          6.54884       -0.63482       -0.52690
H          6.29611        0.54728        0.76504
H          8.34340       -2.55228        1.04110
H          7.10899       -3.58708        1.75123
H          6.97932       -3.09638        0.06404
C          3.42448        5.85007       -0.14759
C          2.53241        4.67880        0.30592
C          2.78823        4.42310        1.80363
C          1.06157        5.07417        0.08949
H          3.20285        6.74920        0.42728
H          4.47957        5.61789       -0.00381
H          3.26109        6.08338       -1.19957
H          3.82537        4.13413        1.97211
H          2.58616        5.31736        2.39285
H          2.15571        3.62292        2.18507
H          0.39002        4.27249        0.39170
H          0.80708        5.96369        0.66537
H          0.87311        5.28789       -0.96188
C          4.87334        3.18709       -4.32330
C          5.18346        2.14565       -3.23170
C          5.32257        0.76236       -3.89687
C          6.52128        2.49352       -2.55266
H          3.91102        2.98444       -4.79115
H          4.83756        4.19512       -3.91218
H          5.63587        3.17379       -5.10188
H          5.58299       -0.00110       -3.16402
H          4.39695        0.46635       -4.38866
H          6.10833        0.77395       -4.65209
H          6.49018        3.48511       -2.10254
H          6.75112        1.77659       -1.76492
H          7.33985        2.47860       -3.27205
H         -1.67491       -0.04785       -4.40574
H          2.24552        1.41307       -4.96588
H         -2.32741       -1.65313       -4.70449
H         -0.90908       -1.10541       -5.59550
H          0.82262        0.60560       -5.61665
H          1.79371       -0.18001       -4.36843
