105
-153.05992475
Cl         0.18815        3.43416        1.88811
Pd        -0.16880        1.94779        0.23790
P         -0.69982        0.24459       -1.32574
N          0.14798       -1.17650       -1.96256
C          0.23004       -2.50171       -1.54624
C         -0.11552       -2.96923       -0.24860
C          0.19742       -4.29845        0.11186
C          0.01866       -4.72981        1.54985
C          0.81872       -5.98697        1.92039
C          0.59901       -7.08741        0.87838
C          1.04971       -6.62232       -0.51602
C          0.72004       -5.18311       -0.83401
C          0.97981       -4.72232       -2.11760
C          0.75931       -3.41349       -2.45917
H          1.00846       -3.06854       -3.44785
H          1.39022       -5.40505       -2.84249
H          2.13370       -6.75658       -0.61403
H          1.11963       -8.01016        1.17108
H          1.88624       -5.73764        1.96637
H          0.30056       -3.89744        2.20725
C         -0.71245       -2.09133        0.79393
C          0.10806       -1.10386        1.39954
C         -0.35481       -0.42647        2.52800
C         -1.60508       -0.68525        3.02654
C         -2.44754       -1.61491        2.42347
C         -3.80862       -1.84020        3.04040
C         -4.75166       -2.74827        2.23019
C         -3.98504       -3.88442        1.54543
C         -2.91059       -3.30993        0.61254
C         -2.00301       -2.32296        1.30284
H         -2.32309       -4.11347        0.15405
H         -4.66871       -4.54899        0.99843
H         -5.26552       -2.15186        1.46679
H         -4.27984       -0.86321        3.20739
H         -1.95631       -0.15090        3.89294
H          0.26872        0.32279        2.98022
N          1.26744       -0.73106        0.72599
P          1.80079        0.89067        0.97154
C          2.89192        1.39377       -0.35202
C          3.14283        2.73207       -0.53989
C          3.90100        3.14032       -1.62235
C          4.39943        2.21061       -2.52596
C          4.14066        0.86327       -2.31176
C          3.38256        0.45609       -1.22901
H          3.16191       -0.58730       -1.07261
H          4.52930        0.13575       -3.00375
C          5.21876        2.64412       -3.69133
H          4.09962        4.18690       -1.77760
H          2.71788        3.44928        0.14504
C          2.64036        0.94285        2.55568
C          3.47934       -0.10190        2.86258
C          4.14931       -0.11331        4.07365
C          3.97624        0.91911        4.98591
C          3.12952        1.96811        4.65367
C          2.46220        1.97549        3.44411
H          1.79079        2.77734        3.19023
H          2.99493        2.77845        5.34968
C          4.71497        0.92015        6.27903
H          4.81119       -0.92673        4.31711
H          3.59860       -0.90715        2.15420
H          1.12118       -0.83764       -0.27723
H          0.37399       -0.98283       -2.93039
C         -0.58075        1.41117       -2.69145
C         -1.68889        1.84715       -3.37737
C         -1.54373        2.75324       -4.41158
C         -0.28824        3.23194       -4.76208
C          0.81958        2.77045       -4.06479
C          0.67050        1.86453       -3.03101
H          1.52722        1.51817       -2.47777
H          1.79956        3.12773       -4.33110
C         -0.12958        4.19371       -5.88773
H         -2.40860        3.09858       -4.95182
H         -2.66447        1.48722       -3.09563
C         -2.43399       -0.17853       -1.16393
C         -2.96818       -1.02476       -2.10626
C         -4.31432       -1.34298       -2.06314
C         -5.13081       -0.81863       -1.07092
C         -4.57265        0.03641       -0.12958
C         -3.22873        0.35624       -0.17792
H         -2.80012        1.02730        0.54797
H         -5.19727        0.45457        0.64107
C         -6.57668       -1.17213       -1.02658
H         -4.73808       -2.00595       -2.79798
H         -2.32669       -1.43434       -2.87072
Cl        -1.90258        3.19566       -0.46250
H          0.60589       -7.26177       -1.28978
H          0.55347       -6.34070        2.92679
H         -0.46651       -7.34841        0.84916
H         -1.04420       -4.90873        1.74339
H         -3.50764       -4.51204        2.30814
H         -3.39492       -2.80172       -0.22711
H         -3.66265       -2.26628        4.04029
H         -5.54974       -3.15048        2.86996
H          4.98014        2.05508       -4.57809
H          5.03933        3.69264       -3.93318
H          6.28278        2.52424       -3.48307
H          5.68673        1.40343        6.16945
H          4.15844        1.45448        7.05026
H          4.88276       -0.09653        6.63723
H         -0.99908        4.84706       -5.97204
H          0.74673        4.82727       -5.74355
H         -0.01139        3.66572       -6.83493
H         -7.06906       -0.72947       -0.15968
H         -7.09057       -0.81546       -1.92026
H         -6.71058       -2.25341       -0.96952
