171
-217.83843159
P         -1.53955        0.14926       -0.20941
P          1.69846       -0.69935        0.21917
C         -0.73756        0.66983       -1.73498
C          0.87884       -1.94065       -0.80419
C          0.02482       -0.25407       -2.43910
C          0.66628        0.15225       -3.62519
C          0.47788        1.44658       -4.08234
C         -0.29641        2.34489       -3.37805
C         -0.90107        1.95105       -2.20101
C          0.95984       -3.22462       -0.31790
C          0.31660       -4.25874       -0.96919
C         -0.42926       -3.98996       -2.09614
C         -0.53996       -2.70110       -2.59024
C          0.13858       -1.65083       -1.94415
Cl         1.16925       -0.38839        3.39627
Cl        -1.96317       -1.03644        2.85285
C         -1.38891       -2.46341       -3.78812
C          1.52271       -0.79078       -4.39586
H         -0.42639        3.35098       -3.74207
H         -1.50701        2.64572       -1.64600
H          1.52452       -3.41329        0.58343
H          0.38929       -5.26547       -0.59135
H          0.94050        1.74661       -5.00700
H         -0.94681       -4.78784       -2.60178
C         -4.68374       -2.91838       -1.34081
C         -3.88176       -3.16008       -0.23150
C         -2.93878       -2.20132        0.10943
C         -2.79369       -1.06134       -0.63844
C         -3.58552       -0.84444       -1.74061
C         -4.56262       -1.76329       -2.10549
H         -5.42619       -3.64417       -1.61063
H         -2.32231       -2.33757        0.97973
H         -3.43158        0.04263       -2.33119
C         -3.63549        3.75201        1.64782
C         -3.98647        3.33561        0.37132
C         -3.34284        2.21838       -0.14869
C         -2.36776        1.56580        0.56812
C         -2.04481        1.99725        1.83440
C         -2.67971        3.09093        2.40478
H         -4.11987        4.61565        2.06483
H         -3.59493        1.85442       -1.12852
H         -1.29561        1.47573        2.39760
C          5.75180       -2.40887        1.32905
C          5.25445       -2.60066        0.04472
C          4.00536       -2.07173       -0.25378
C          3.28604       -1.39218        0.69842
C          3.79233       -1.21541        1.95980
C          5.03858       -1.71895        2.30305
H          6.71557       -2.80938        1.57759
H          3.58300       -2.19818       -1.23709
H          3.19727       -0.69688        2.68896
C          2.75022        3.39462       -1.41233
C          1.80191        3.32005       -0.39863
C          1.45085        2.05997        0.06952
C          2.03594        0.93202       -0.45755
C          2.98705        1.02784       -1.44351
C          3.36646        2.26813       -1.94156
H          3.03873        4.35637       -1.79237
H          0.72834        1.96127        0.86019
H          3.44439        0.12421       -1.80751
Pd        -0.17216       -0.51582        1.60673
C         -2.66961       -5.16634        0.65795
C         -4.01508       -4.41791        0.63831
C         -5.09712       -5.37334        0.10032
C         -4.39564       -4.00161        2.07151
H         -2.37655       -5.45469       -0.35109
H         -1.87666       -4.54511        1.07275
H         -2.73435       -6.07093        1.26217
H         -4.86279       -5.69997       -0.91273
H         -5.17178       -6.26340        0.72498
H         -6.07579       -4.89390        0.09265
H         -5.33464       -3.44869        2.07495
H         -4.51416       -4.87425        2.71338
H         -3.63181       -3.36353        2.51438
C         -6.56476       -2.54531       -3.47450
C         -5.48485       -1.46033       -3.29816
C         -4.65809       -1.38010       -4.59378
C         -6.18755       -0.11087       -3.06107
H         -7.22167       -2.30438       -4.31025
H         -6.11602       -3.51701       -3.67985
H         -7.18414       -2.63037       -2.58177
H         -3.87931       -0.62195       -4.51949
H         -4.18368       -2.33611       -4.81094
H         -5.29150       -1.12370       -5.44287
H         -6.73192       -0.11908       -2.11694
H         -5.46618        0.70399       -3.02929
H         -6.89699        0.10672       -3.85932
C         -6.31253        4.29121        0.38734
C         -5.01784        4.13857       -0.43370
C         -5.37068        3.44042       -1.76032
C         -4.43215        5.52690       -0.74757
H         -6.71400        3.31442        0.65659
H         -6.13984        4.84816        1.30717
H         -7.07414        4.82329       -0.18252
H         -5.78219        2.44920       -1.57438
H         -6.11760        4.01094       -2.31220
H         -4.49459        3.34109       -2.40095
H         -5.13486        6.12613       -1.32624
H         -4.19998        6.07168        0.16704
H         -3.51148        5.43449       -1.32370
C         -1.27540        2.69865        4.49387
C         -2.37425        3.55757        3.83550
C         -3.65316        3.44121        4.68482
C         -1.90133        5.02204        3.80814
H         -1.57906        1.65393        4.55832
H         -0.34325        2.75147        3.93291
H         -1.06945        3.04382        5.50677
H         -4.01154        2.41207        4.69903
H         -3.46810        3.74910        5.71374
H         -4.45066        4.06760        4.28679
H         -1.01414        5.12780        3.18594
H         -2.67066        5.68075        3.40715
H         -1.65372        5.37082        4.81054
C          6.26015       -2.45624       -2.24879
C          6.01694       -3.37692       -1.03849
C          5.17600       -4.59189       -1.47353
C          7.37984       -3.88233       -0.52773
H          6.83351       -1.57759       -1.95411
H          6.81621       -2.97588       -3.02887
H          5.32069       -2.11492       -2.68205
H          4.21881       -4.28193       -1.89156
H          5.69723       -5.17638       -2.23145
H          4.97360       -5.24366       -0.62385
H          7.25604       -4.55709        0.31911
H          7.90698       -4.42892       -1.30965
H          8.01569       -3.05240       -0.21997
C          4.59575       -2.15952        4.73053
C          5.56566       -1.50460        3.72915
C          5.65883        0.00641        4.01253
C          6.96241       -2.12544        3.92244
H          4.95134       -2.03995        5.75369
H          3.60311       -1.71497        4.66909
H          4.49695       -3.22593        4.52916
H          6.04751        0.19253        5.01351
H          6.32159        0.49210        3.29660
H          4.68209        0.48350        3.94085
H          7.32113       -1.96088        4.93843
H          6.94076       -3.20155        3.75139
H          7.68725       -1.68040        3.24101
C         -0.32033        4.59777        0.03627
C          1.20131        4.57482        0.25472
C          1.79321        5.86860       -0.33747
C          1.51085        4.54744        1.76300
H         -0.77382        5.46242        0.52039
H         -0.55619        4.64686       -1.02612
H         -0.78646        3.70466        0.44576
H          1.36534        6.74586        0.14774
H          2.87310        5.90709       -0.19550
H          1.57956        5.94614       -1.40338
H          1.14256        5.44750        2.25434
H          1.04868        3.68767        2.24538
H          2.58558        4.48756        1.93340
C          5.07918        1.06317       -3.38702
C          4.46841        2.42394       -2.99977
C          5.59311        3.31179       -2.43404
C          3.87964        3.07652       -4.26236
H          4.32637        0.39899       -3.80939
H          5.86376        1.18838       -4.13310
H          5.52293        0.57547       -2.51949
H          6.40744        3.41369       -3.15120
H          5.23063        4.31175       -2.19917
H          6.00046        2.87979       -1.52009
H          3.09491        2.45242       -4.68651
H          3.44902        4.05220       -4.04008
H          4.64688        3.21458       -5.02400
H         -0.91607       -2.85944       -4.68795
H          0.93443       -1.33914       -5.13249
H         -1.57608       -1.40032       -3.94269
H         -2.35399       -2.95781       -3.67160
H          2.00138       -1.51646       -3.73628
H          2.31152       -0.25928       -4.92999
