111
-148.55569141
P         -2.17535        2.12223        1.49212
P          0.15174        0.16054        0.61762
C         -1.10572        1.38313        2.74919
C         -0.10266        0.51882        2.36781
C         -2.23123        3.96287        1.65257
C         -1.32785        4.62929        0.63701
C         -1.29200        1.68311        4.08324
H         -2.06796        2.37440        4.36988
C         -0.47979        1.09886        5.03953
H         -0.62538        1.32930        6.08228
C          0.51550        0.21994        4.65800
H          1.14651       -0.23766        5.40209
C          0.70534       -0.06935        3.31847
H          1.47953       -0.75247        3.00945
Pd        -1.42225        1.39728       -0.56289
Cl        -3.10564        2.56587       -1.47297
Cl        -0.55985        0.60260       -2.47287
C         -3.72916        4.27229        1.48111
C         -3.97454        1.72480        1.69760
H         -1.35947        5.71755        0.72773
H         -0.29023        4.30812        0.75728
H         -1.63367        4.37498       -0.37940
H         -3.93146        4.45195        0.41611
H         -3.98843        5.21105        1.99409
H         -4.30307        1.34318        0.72173
C         -4.61480        3.09786        1.98481
C         -4.20988        0.69779        2.78676
H         -1.90601        4.19445        2.67526
H         -4.76710        3.19690        3.06819
H         -5.62093        3.14957        1.54221
H         -5.26340        0.41534        2.84872
H         -3.62376       -0.20756        2.61939
H         -3.91992        1.09184        3.76174
C         -1.31965       -4.00673       -0.47992
C         -2.21802       -3.04989        0.05980
C         -1.71377       -1.81238        0.42670
C         -0.40536       -1.48382        0.18131
C          0.42641       -2.35364       -0.47452
C         -0.00747       -3.61372       -0.84749
O         -1.71146       -5.36578       -0.60537
C         -3.71755       -3.32805        0.24707
H         -2.34282       -1.07808        0.89914
H          1.42704       -2.03228       -0.70010
C          0.94775       -4.53906       -1.61648
C          4.37365        0.92328       -0.92373
C          4.15289       -0.10427        0.02864
C          2.86000       -0.31451        0.47905
C          1.82860        0.49575        0.07838
C          2.06201        1.56427       -0.74763
C          3.32868        1.82758       -1.24077
O          5.62311        1.01965       -1.59204
C          5.28095       -1.00979        0.54830
H          2.63916       -1.13783        1.13543
H          1.22772        2.18131       -1.03187
C          3.53249        3.04718       -2.15248
C         -4.21846       -4.40787       -0.72962
C         -3.97316       -3.76931        1.69569
C         -4.53759       -2.05125       -0.04623
C          0.17063       -5.48252       -2.55247
C          1.90745       -3.71361       -2.50372
C          1.77781       -5.35617       -0.61532
C         -1.47313       -6.13649        0.56548
H         -3.75037       -5.36906       -0.53364
H         -5.29638       -4.54358       -0.64515
H         -3.99078       -4.12950       -1.75804
H         -5.03177       -3.96575        1.86344
H         -3.41975       -4.67608        1.93184
H         -3.65792       -2.99650        2.39631
H         -4.28781       -1.64870       -1.02759
H         -5.60613       -2.26442       -0.03259
H         -4.35713       -1.27526        0.69384
H         -0.46065       -4.91257       -3.23336
H          0.85022       -6.09130       -3.14828
H         -0.46956       -6.15831       -1.99045
H          1.35025       -3.03121       -3.14504
H          2.60634       -3.12846       -1.90869
H          2.50086       -4.36610       -3.14376
H          1.13885       -5.97688        0.00903
H          2.48071       -6.00928       -1.13189
H          2.34719       -4.69862        0.04129
H         -0.94490       -5.54074        1.31100
H         -2.42066       -6.47741        0.98207
H         -0.87457       -7.01077        0.30938
C          5.70060        0.24552       -2.78266
C          6.62830       -0.26502        0.56839
C          4.99397       -1.45607        2.00014
C          5.38037       -2.26065       -0.33810
C          2.55242        4.18147       -1.77373
C          4.95537        3.61677       -2.01003
C          3.26732        2.63773       -3.60929
H          6.94465        0.01121       -0.43420
H          6.55306        0.64798        1.15807
H          7.41268       -0.88514        1.00165
H          5.84798       -1.98982        2.41658
H          4.79398       -0.59512        2.63752
H          4.13975       -2.12920        2.05474
H          6.18169       -2.91670        0.00088
H          4.44951       -2.82606       -0.31145
H          5.57768       -1.99584       -1.37422
H          2.78151        5.09143       -2.32783
H          1.52137        3.91873       -2.00576
H          2.61773        4.41160       -0.71061
H          5.16556        3.86840       -0.97107
H          5.70436        2.90008       -2.33743
H          5.07832        4.51855       -2.60932
H          3.95225        1.85640       -3.92987
H          3.38591        3.48681       -4.28181
H          2.25297        2.25560       -3.72249
H          4.75740       -0.27241       -2.96155
H          5.92346        0.89650       -3.62791
H          6.50473       -0.48470       -2.69367
