111
-148.55396894
P         -1.63983        2.76258       -0.13590
P         -0.45100       -0.08215        0.54838
C         -1.68333        2.15141        1.57425
C         -1.23014        0.88018        1.85658
C         -0.49094        4.20425       -0.27615
C          0.68195        3.86312       -1.17102
C         -2.13978        2.95882        2.59658
H         -2.45572        3.96572        2.37843
C         -2.16619        2.47898        3.89476
H         -2.52662        3.10799        4.69231
C         -1.72584        1.19858        4.17084
H         -1.74150        0.82762        5.18243
C         -1.24566        0.39937        3.14881
H         -0.86491       -0.58976        3.34997
Pd        -1.17216        0.89178       -1.41422
Cl        -2.17401        1.88716       -3.15261
Cl        -0.58946       -1.00671       -2.46960
C         -1.39270        5.33233       -0.81735
C         -3.22715        3.56190       -0.65751
H          1.36072        4.71205       -1.28213
H          1.25491        3.02168       -0.77556
H          0.33622        3.58100       -2.16765
H         -1.23393        5.41888       -1.90096
H         -1.08573        6.30230       -0.39800
H         -3.36497        3.29460       -1.71307
C         -2.89940        5.06121       -0.54065
C         -4.41441        3.09495        0.15763
H         -0.15843        4.42834        0.74587
H         -3.15823        5.40502        0.47013
H         -3.53608        5.64592       -1.22224
H         -5.34156        3.55678       -0.18928
H         -4.53284        2.01064        0.09720
H         -4.29649        3.35233        1.21044
C         -1.06096       -4.58883        0.72053
C          0.23667       -4.05062        0.91520
C          0.39095       -2.67556        0.86080
C         -0.68785       -1.84866        0.68729
C         -1.95657       -2.35759        0.59753
C         -2.18303       -3.72366        0.65137
O         -1.22966       -5.99014        0.56078
C          1.47405       -4.93490        1.13581
H          1.36685       -2.22898        0.93508
H         -2.77224       -1.66689        0.46626
C         -3.62872       -4.24155        0.59238
C          3.84701        1.33142        0.03544
C          3.34771        0.28593       -0.78290
C          2.03538       -0.11567       -0.60276
C          1.26751        0.40520        0.40418
C          1.77780        1.34238        1.26388
C          3.07643        1.80341        1.12890
O          5.09484        1.93892       -0.26634
C          4.17968       -0.38519       -1.88595
H          1.57290       -0.81089       -1.28165
H          1.13450        1.73218        2.03277
C          3.61257        2.83615        2.13230
C          2.07572       -5.31679       -0.22521
C          2.54882       -4.18078        1.95172
C          1.11237       -6.20201        1.93169
C         -3.78098       -5.56153        1.37000
C         -4.59785       -3.22641        1.24042
C         -4.03631       -4.43861       -0.87579
C         -1.16344       -6.43252       -0.78929
H          1.36983       -5.88739       -0.82316
H          2.34294       -4.42539       -0.79166
H          2.97443       -5.92014       -0.09976
H          3.36947       -4.84646        2.21824
H          2.97896       -3.35520        1.38653
H          2.12736       -3.78355        2.87475
H          1.99905       -6.80005        2.14053
H          0.64889       -5.93894        2.88194
H          0.41441       -6.82947        1.38291
H         -3.45384       -5.43850        2.40189
H         -4.81911       -5.89266        1.38034
H         -3.18760       -6.35626        0.92543
H         -4.26821       -2.96306        2.24513
H         -4.67661       -2.31220        0.65413
H         -5.60153       -3.64417        1.31618
H         -3.39196       -5.16077       -1.37106
H         -5.06320       -4.79504       -0.95202
H         -3.96246       -3.50012       -1.42476
H         -2.10933       -6.89429       -1.07147
H         -0.95509       -5.59338       -1.45435
H         -0.37796       -7.18142       -0.88947
C          5.00363        3.02077       -1.18542
C          3.93798        0.34437       -3.21604
C          5.67932       -0.38043       -1.53867
C          3.76406       -1.86533       -2.04865
C          3.32296        4.25227        1.61191
C          2.92645        2.67014        3.50742
C          5.12427        2.65272        2.35756
H          4.22974        1.39004       -3.15084
H          4.50774       -0.11543       -4.02303
H          2.88274        0.31170       -3.48650
H          6.07163        0.63143       -1.48084
H          5.85107       -0.85990       -0.57553
H          6.25753       -0.91523       -2.29177
H          2.75267       -1.96215       -2.44003
H          4.42673       -2.37946       -2.74435
H          3.81333       -2.38591       -1.09282
H          3.69253        5.00640        2.30624
H          3.79565        4.42330        0.64794
H          2.25149        4.40543        1.48817
H          3.39466        3.31225        4.25312
H          1.87279        2.94306        3.46789
H          3.00230        1.64085        3.85702
H          5.34273        1.63747        2.68696
H          5.49421        3.34263        3.11561
H          5.68593        2.83537        1.44471
H          3.96293        3.20611       -1.45391
H          5.42857        3.91787       -0.73533
H          5.57362        2.78892       -2.08484
