111
-148.55483634
P         -2.53240        2.09995        0.92808
P          0.10776        0.38078        0.53949
C         -1.46716        1.74338        2.35230
C         -0.30034        1.03265        2.16947
C         -3.27996        3.78987        1.02928
C         -2.63203        4.73890        0.04490
C         -1.82214        2.16813        3.61665
H         -2.74552        2.70526        3.75886
C         -0.99911        1.88758        4.69385
H         -1.27549        2.21915        5.68143
C          0.17369        1.18149        4.50583
H          0.81303        0.96151        5.34489
C          0.52226        0.74846        3.23903
H          1.42592        0.18200        3.07572
Pd        -1.28433        1.50992       -0.91660
Cl        -2.90536        2.33966       -2.22603
Cl         0.05013        0.88230       -2.61509
C         -4.77484        3.51963        0.77453
C         -4.06323        1.06309        0.87530
H         -2.75736        4.38130       -0.97807
H         -3.07425        5.73631        0.10149
H         -1.55917        4.83156        0.23019
H         -4.97956        3.65593       -0.29633
H         -5.39417        4.26837        1.29148
H         -4.15608        0.71105       -0.16094
C         -5.17665        2.07720        1.19674
C         -3.97218       -0.10466        1.83334
H         -3.12504        4.13815        2.05833
H         -5.37566        2.05341        2.27705
H         -6.11975        1.77536        0.71621
H         -3.13737       -0.76022        1.57660
H         -3.81303        0.24379        2.85551
H         -4.88670       -0.70220        1.82389
C         -1.19318       -3.96126        0.10430
C         -1.17715       -3.36724        1.39292
C         -0.76600       -2.04932        1.50352
C         -0.45878       -1.31162        0.39083
C         -0.58251       -1.84853       -0.86266
C         -0.98093       -3.16011       -1.04631
O         -1.38193       -5.36247       -0.03034
C         -1.56116       -4.14098        2.66390
H         -0.66896       -1.58163        2.46717
H         -0.34938       -1.21809       -1.70297
C         -1.13727       -3.69394       -2.47815
C          4.47156        0.75143       -0.69841
C          3.85056       -0.52297       -0.66382
C          2.52255       -0.59206       -0.28034
C          1.84009        0.52570        0.12242
C          2.46282        1.74415        0.18624
C          3.79229        1.88418       -0.17956
O          5.75583        0.89854       -1.28688
C          4.57145       -1.81521       -1.07836
H          1.99262       -1.52774       -0.31138
H          1.88651        2.59255        0.51345
C          4.46099        3.26170       -0.04924
C         -2.14410       -3.18703        3.73146
C         -2.64460       -5.19328        2.36560
C         -0.31000       -4.81815        3.24321
C         -1.57989       -2.56213       -3.43451
C          0.21266       -4.24505       -2.96242
C         -2.21705       -4.78851       -2.54943
C         -0.17395       -6.11288       -0.00963
H         -2.97171       -2.60780        3.32367
H         -2.52010       -3.74828        4.58657
H         -1.39329       -2.49483        4.10948
H         -2.96407       -5.69647        3.27785
H         -3.51816       -4.72631        1.91184
H         -2.28017       -5.95489        1.68071
H         -0.54877       -5.36525        4.15487
H          0.12243       -5.51990        2.53408
H          0.45242       -4.07745        3.48349
H         -1.82008       -2.95990       -4.42012
H         -2.46605       -2.05594       -3.05261
H         -0.79555       -1.81966       -3.57315
H          0.13715       -4.62397       -3.98127
H          0.97373       -3.46524       -2.94788
H          0.55897       -5.05621       -2.32633
H         -3.16712       -4.41490       -2.16895
H         -2.36990       -5.12195       -3.57555
H         -1.94080       -5.65829       -1.95888
H         -0.06317       -6.65550       -0.94826
H          0.68256       -5.45234        0.13152
H         -0.20995       -6.84004        0.80143
C          5.72457        1.17874       -2.68087
C          6.07128       -1.74700       -0.73925
C          3.99199       -3.03196       -0.31967
C          4.37607       -2.04317       -2.58506
C          4.24395        4.05514       -1.34678
C          3.84554        4.05770        1.12419
C          5.96601        3.12490        0.24489
H          6.56915       -0.95809       -1.29734
H          6.21581       -1.54717        0.32195
H          6.57038       -2.68557       -0.97896
H          4.58577       -3.92550       -0.51106
H          3.99190       -2.85448        0.75548
H          2.97236       -3.25482       -0.63101
H          4.79441       -1.22475       -3.16568
H          4.85889       -2.96562       -2.90663
H          3.31631       -2.11326       -2.82905
H          3.18029        4.18163       -1.54728
H          4.69549        5.04462       -1.28006
H          4.68147        3.54295       -2.20022
H          3.86773        3.47255        2.04320
H          4.40108        4.97858        1.30025
H          2.81374        4.34138        0.92249
H          6.48970        2.64432       -0.57754
H          6.12900        2.52565        1.14003
H          6.42497        4.10077        0.40150
H          6.21873        2.13066       -2.87424
H          6.26227        0.40083       -3.22267
H          4.69421        1.22448       -3.03602
