111
-148.55544959
P         -2.64264        1.80973        0.71686
P          0.23441        0.50487        0.46821
C         -1.65024        1.51597        2.20813
C         -0.37899        0.99638        2.09091
C         -3.76167        3.26775        0.93967
C         -3.57128        4.28263       -0.16564
C         -2.16352        1.79930        3.45803
H         -3.16447        2.18816        3.54792
C         -1.39704        1.56821        4.58731
H         -1.79777        1.78975        5.56301
C         -0.12145        1.05156        4.46590
H          0.47420        0.86862        5.34506
C          0.38702        0.75983        3.21325
H          1.37400        0.33973        3.10228
Pd        -1.13535        1.64287       -1.02116
Cl        -2.65814        2.34247       -2.51019
Cl         0.43597        1.39016       -2.61033
C         -5.16438        2.62383        0.96180
C         -3.88369        0.47833        0.38298
H         -3.82810        3.84841       -1.13281
H         -4.20730        5.15907       -0.02034
H         -2.53407        4.62136       -0.22099
H         -5.89670        3.32555        0.53644
H         -5.48373        2.45749        2.00116
H         -3.57920       -0.01595       -0.55006
C         -5.19278        1.27175        0.19344
C         -3.92713       -0.51826        1.52054
H         -3.51365        3.71628        1.91083
H         -6.04540        0.65793        0.51899
H         -5.35797        1.46639       -0.87660
H         -4.65430       -1.31181        1.33255
H         -2.95170       -0.98362        1.67486
H         -4.20658       -0.02552        2.45365
C         -1.47606       -3.62318       -0.39370
C         -1.12783       -2.76506       -1.46768
C         -0.58782       -1.52812       -1.16554
C         -0.35098       -1.15472        0.13059
C         -0.57834       -2.02412        1.16459
C         -1.09588       -3.28742        0.93167
O         -2.24564       -4.79102       -0.63982
C         -1.38851       -3.12316       -2.93807
H         -0.36201       -0.81915       -1.94283
H         -0.36561       -1.69317        2.16615
C         -1.26693       -4.25203        2.11535
C          4.77091        0.58757        0.09760
C          4.13018       -0.49171        0.75830
C          2.74710       -0.48632        0.83137
C          2.01710        0.57044        0.35299
C          2.63735        1.66606       -0.18662
C          4.01684        1.72085       -0.30145
O          6.15863        0.51701       -0.19690
C          4.90353       -1.67367        1.36403
H          2.21505       -1.32202        1.25270
H          2.02151        2.47341       -0.54335
C          4.66655        2.97886       -0.89867
C         -0.34733       -2.44457       -3.85748
C         -1.27352       -4.64035       -3.17003
C         -2.78806       -2.62879       -3.33540
C         -2.63051       -4.00943        2.78010
C         -1.15290       -5.71804        1.65928
C         -0.15600       -4.02108        3.16512
C         -3.64947       -4.58478       -0.54237
H         -0.47263       -1.36307       -3.88032
H          0.66634       -2.66551       -3.52441
H         -0.44774       -2.79879       -4.88308
H         -1.39736       -4.88612       -4.22441
H         -0.29831       -5.00462       -2.84875
H         -2.03254       -5.18524       -2.61428
H         -3.00081       -2.85586       -4.37963
H         -3.55838       -3.09522       -2.72581
H         -2.86755       -1.55006       -3.20141
H         -3.44493       -4.15565        2.07433
H         -2.78318       -4.69058        3.61684
H         -2.69909       -2.99050        3.15999
H         -1.95493       -5.98473        0.97569
H         -0.20685       -5.88754        1.14621
H         -1.20479       -6.39823        2.50906
H         -0.19709       -4.78077        3.94536
H          0.82935       -4.06948        2.70234
H         -0.25698       -3.05393        3.65520
H         -3.86563       -3.54146       -0.30877
H         -4.12408       -4.85074       -1.48679
H         -4.06091       -5.22440        0.23824
C          6.45495       -0.08794       -1.44949
C          4.14131       -2.25975        2.57484
C          5.06004       -2.77546        0.30504
C          6.28496       -1.22912        1.87780
C          3.81697        4.23249       -0.58930
C          6.06198        3.22443       -0.29662
C          4.76567        2.82046       -2.42363
H          3.21544       -2.74639        2.27201
H          4.74429       -3.01068        3.08488
H          3.89932       -1.47903        3.29555
H          4.08505       -3.11723       -0.04181
H          5.61105       -2.41564       -0.56047
H          5.59415       -3.63417        0.71097
H          6.18329       -0.41902        2.59917
H          6.80607       -2.05331        2.36425
H          6.91564       -0.87505        1.06629
H          4.33785        5.13842       -0.89846
H          2.86562        4.21552       -1.11888
H          3.61541        4.31040        0.47873
H          6.49385        4.15118       -0.67358
H          6.00445        3.29385        0.78912
H          6.74856        2.41848       -0.54297
H          3.77779        2.67315       -2.85960
H          5.37609        1.96175       -2.69215
H          5.20865        3.70493       -2.88060
H          7.08560       -0.96300       -1.29348
H          5.53546       -0.38689       -1.95437
H          7.00110        0.61696       -2.07609
