45
-71.81359868
C          2.28131        1.47728        2.34443
P          1.52246        0.94091        0.77512
P         -1.01810        0.04618       -0.94074
C         -0.34990       -0.57958       -2.51925
Cl         1.54184       -1.67317        2.40075
H          1.50872        1.79832        3.03722
H         -0.84110       -0.08552       -3.35264
Cl        -1.41926       -2.52736        0.85377
C          0.44469        2.19091        0.03986
C         -0.63605        1.79640       -0.71992
C         -1.44221        2.73885       -1.32402
C         -1.16138        4.08492       -1.16852
C         -0.07444        4.48056       -0.41341
C          0.73285        3.53190        0.18949
H         -2.28661        2.41444       -1.91115
H         -1.79006        4.82337       -1.63822
H          0.14750        5.52847       -0.29574
H          1.59070        3.82976        0.77022
Pd         0.15059       -0.92971        0.80049
H         -0.51183       -1.65122       -2.59269
H          2.96634        2.30125        2.16645
H          0.71690       -0.38199       -2.57216
C         -5.47510       -0.65635       -0.36379
C         -4.75071        0.06008        0.56814
C         -3.39676        0.26973        0.37451
C         -2.77935       -0.23560       -0.74688
C         -3.49641       -0.95333       -1.67693
C         -4.85023       -1.16365       -1.48593
H         -6.52930       -0.82276       -0.21344
H         -5.23651        0.45220        1.44646
H         -2.81498        0.82320        1.09527
H         -2.99739       -1.35074       -2.54565
H         -5.41526       -1.72620       -2.21094
C          4.55693       -0.48561       -2.29269
C          4.37245       -1.19433       -1.12159
C          3.45629       -0.74901       -0.18683
C          2.73981        0.40061       -0.42505
C          2.91196        1.10550       -1.59398
C          3.82672        0.66237       -2.53213
H          5.26958       -0.83155       -3.02350
H          4.93483       -2.09514       -0.93864
H          3.27064       -1.30311        0.71926
H          2.32848        1.99490       -1.76908
H          3.96746        1.21160       -3.44853
H          2.83122        0.65200        2.78758
