111
-148.55172877
P         -2.73531        1.79772       -0.33675
P          0.17463        0.63385        0.15479
C         -1.81716        2.24590        1.16651
C         -0.53048        1.78593        1.34575
C         -3.90684        3.15847       -0.80001
C         -3.69778        3.62986       -2.22187
C         -2.40133        3.03808        2.13506
H         -3.41514        3.37930        2.00593
C         -1.68996        3.37481        3.27388
H         -2.14662        3.99380        4.02884
C         -0.39803        2.91667        3.44604
H          0.15450        3.17586        4.33414
C          0.18156        2.11383        2.48052
H          1.18135        1.72954        2.60811
Pd        -1.13477        0.88096       -1.74357
Cl        -2.65993        0.96005       -3.38054
Cl         0.50789       -0.07892       -2.93465
C         -5.29094        2.52320       -0.54848
C         -3.92539        0.40339       -0.08130
H         -2.66507        3.94415       -2.38921
H         -3.91773        2.82865       -2.92810
H         -4.35231        4.46956       -2.46709
H         -6.01767        2.93275       -1.26515
H         -5.66150        2.81357        0.44561
H         -3.56514       -0.43997       -0.68671
C         -5.24341        0.97184       -0.64523
C         -3.99737        0.01370        1.37904
H         -3.71843        3.98573       -0.10296
H         -6.09513        0.52318       -0.11325
H         -5.35776        0.67091       -1.69715
H         -4.69549       -0.81102        1.54128
H         -3.01933       -0.29351        1.75450
H         -4.33184        0.85674        1.98648
C         -1.29411       -3.52103        1.30084
C         -0.91112       -3.25234       -0.03787
C         -0.45691       -1.98241       -0.34436
C         -0.32926       -1.02170        0.62289
C         -0.58777       -1.31062        1.93684
C         -1.02877       -2.56698        2.31699
O         -1.98314       -4.72255        1.61439
C         -1.03655       -4.28955       -1.16347
H         -0.20930       -1.71327       -1.35604
H         -0.45899       -0.52979        2.66579
C         -1.24299       -2.86077        3.80975
C          4.71723        0.88816       -0.00112
C          3.94526        1.58552       -0.96578
C          2.56432        1.51842       -0.87645
C          1.95721        0.73228        0.06678
C          2.69904       -0.02862        0.93246
C          4.08325       -0.00219        0.90244
O          6.11868        1.10457        0.08027
C          4.58303        2.41066       -2.09471
H          1.93902        2.07512       -1.55288
H          2.17541       -0.65109        1.63756
C          4.86886       -0.91884        1.85333
C         -0.82418       -5.71756       -0.62978
C         -2.42427       -4.16476       -1.81101
C          0.03729       -4.04824       -2.24906
C         -2.66488       -2.44207        4.21365
C         -1.02059       -4.35206        4.12055
C         -0.23092       -2.06756        4.66782
C         -3.39883       -4.60983        1.53804
H         -0.85040       -6.44650       -1.43935
H          0.14003       -5.80050       -0.12938
H         -1.59556       -5.99257        0.08524
H         -3.21476       -4.34681       -1.08677
H         -2.57093       -3.16394       -2.21689
H         -2.54138       -4.87976       -2.62485
H          0.03646       -4.85600       -2.98046
H         -0.14147       -3.12345       -2.79554
H          1.03165       -3.99814       -1.80629
H         -3.41323       -2.97488        3.63158
H         -2.84776       -2.64864        5.26782
H         -2.81442       -1.37528        4.04955
H         -0.02973       -4.66785        3.79573
H         -1.10545       -4.54670        5.18938
H         -1.75202       -4.97655        3.61388
H         -0.42082       -0.99597        4.62983
H         -0.29308       -2.36619        5.71403
H          0.78892       -2.24716        4.32839
H         -3.68461       -3.60242        1.23254
H         -3.78429       -5.33064        0.81709
H         -3.83733       -4.83241        2.51062
C          6.49155        2.16892        0.94635
C          5.92692        1.80152       -2.53441
C          3.66779        2.42556       -3.34067
C          4.78790        3.85616       -1.61758
C          5.12260       -0.18120        3.17656
C          4.06924       -2.20801        2.15276
C          6.20422       -1.35550        1.22392
H          6.34636        2.34604       -3.37999
H          6.65769        1.83015       -1.72997
H          5.79724        0.76126       -2.83109
H          3.39232        1.41202       -3.63109
H          2.75410        2.99074       -3.16357
H          4.17256        2.89123       -4.18673
H          5.44580        3.89624       -0.75275
H          5.22849        4.46815       -2.40422
H          3.83733        4.30608       -1.33204
H          4.18093        0.10257        3.64608
H          5.67223       -0.81110        3.87557
H          5.69938        0.72673        3.01722
H          4.67473       -2.91652        2.71753
H          3.18039       -2.00314        2.74766
H          3.75882       -2.69514        1.22870
H          6.03482       -1.83931        0.26256
H          6.73095       -2.05790        1.86941
H          6.86126       -0.50538        1.05794
H          7.05128        2.91726        0.38555
H          5.60628        2.63010        1.38598
H          7.13429        1.78700        1.73931
