72
-98.09168651
Fe        -0.05381        2.78806       -0.00857
P          1.82556       -0.11733        0.10868
P         -1.93707       -0.08970       -0.09872
C          1.40529        1.57137        0.68880
C          0.44761        1.88070        1.73669
C          0.41703        3.32307        1.90931
C          1.37254        3.90572        0.98453
C          1.99151        2.82346        0.23834
C         -1.46407        1.56465       -0.73975
C         -2.05387        2.83387       -0.34475
C         -1.40986        3.89079       -1.10644
C         -0.42071        3.27474       -1.97212
C         -0.46578        1.83823       -1.76093
C          3.07659       -0.83711        1.26280
C          4.40231       -0.49096        0.56611
C          2.84664       -0.06234       -1.43831
C          4.24829       -0.51641       -0.97919
C         -3.39813       -0.70207       -1.05255
C         -4.56947       -0.17990       -0.20331
C         -2.72143        0.05849        1.57288
C         -4.21948       -0.20917        1.31062
H         -0.12262        1.15325        2.31528
H         -0.19585        3.86977        2.62986
H          1.60290        4.96870        0.88395
H          2.77253        2.92813       -0.51715
H         -2.86029        2.96185        0.38070
H          0.14821        1.09787       -2.27359
Cl         1.47645       -3.12972       -0.01661
Cl        -1.67335       -3.04961       -0.18902
Pd        -0.05438       -1.46798       -0.11373
H          2.92759       -1.92256        1.27713
C          2.92390       -0.27209        2.66960
H          2.85930        0.98383       -1.76489
C          2.25120       -0.94829       -2.52783
H          5.19949       -1.17610        0.89354
H          4.72008        0.51034        0.88931
H          5.02669        0.09499       -1.45955
H          4.42023       -1.54043       -1.33749
H         -1.63641        4.95759       -1.04512
H          0.22543        3.79722       -2.68131
H          3.06048        0.81683        2.63137
H          2.26863       -1.99053       -2.18243
H         -3.37329       -1.79713       -1.02572
C         -3.38711       -0.21733       -2.49666
H         -2.55815        1.09090        1.90353
C         -2.08718       -0.92260        2.55338
H         -5.48262       -0.75924       -0.41070
H         -4.79601        0.85068       -0.51145
H         -4.84158        0.50584        1.86928
H         -4.47605       -1.19704        1.71651
H         -4.36211       -0.42984       -2.95702
H         -0.99429       -0.81938        2.52258
C          3.89081       -0.89070        3.66782
H          3.75641       -0.48594        4.67350
H          3.75547       -1.97223        3.72770
H          4.92794       -0.71169        3.37878
C          2.97363       -0.82035       -3.86034
H          2.53341       -1.46097       -4.62787
H          2.93860        0.20644       -4.22944
H          4.02636       -1.09362       -3.76984
C         -2.27235       -0.84798       -3.31700
H         -1.29565       -0.64496       -2.87684
H         -2.38040       -1.93336       -3.36018
H         -2.25507       -0.47593       -4.34379
C         -2.58645       -0.74544        3.97937
H         -2.12137       -1.45527        4.66718
H         -2.37181        0.25915        4.34885
H         -3.66671       -0.88711        4.04308
H          1.88753       -0.42096        3.00399
H          1.18728       -0.71185       -2.65441
H         -3.29589        0.87678       -2.50294
H         -2.28213       -1.94510        2.20258
