171
-217.84022549
P         -1.54440        0.19353       -0.21138
P          1.68214       -0.69019        0.22500
C         -0.74040        0.72920       -1.72889
C          0.85566       -1.90494       -0.82299
C          0.03048       -0.18288       -2.43912
C          0.68014        0.24249       -3.61399
C          0.49074        1.54281       -4.05397
C         -0.29706        2.42705       -3.34649
C         -0.91064        2.01443       -2.18041
C          0.90817       -3.19557       -0.35078
C          0.25383       -4.21070       -1.02114
C         -0.46994       -3.91664       -2.15613
C         -0.55418       -2.62018       -2.63524
C          0.13243       -1.58884       -1.96727
Cl         1.08632       -0.37938        3.44962
Cl        -1.97847       -1.00772        2.84126
C         -1.38473       -2.35296       -3.84034
C          1.54428       -0.68689       -4.39249
H         -0.43111        3.43641       -3.69978
H         -1.53223        2.69459       -1.62398
H          1.45816       -3.40417        0.55524
H          0.30147       -5.22241       -0.65276
H          0.96225        1.85873       -4.96883
H         -0.99037       -4.70007       -2.68084
C         -4.58894       -2.95574       -1.37490
C         -3.74044       -3.20967       -0.30440
C         -2.83482       -2.22097        0.05601
C         -2.76954       -1.04347       -0.64453
C         -3.59997       -0.81920       -1.71601
C         -4.54476       -1.76584       -2.09245
H         -5.30439       -3.70852       -1.64739
H         -2.17433       -2.36025        0.89235
H         -3.49827        0.09278       -2.27895
C         -3.70384        3.76280        1.63940
C         -4.06644        3.31407        0.37641
C         -3.40248        2.20617       -0.13402
C         -2.38627        1.60105        0.56539
C         -2.03971        2.07191        1.81093
C         -2.70109        3.15165        2.37895
H         -4.21659        4.60285        2.06856
H         -3.68375        1.81284       -1.09443
H         -1.25387        1.58992        2.35985
C          5.69313       -2.44970        1.39429
C          5.26034       -2.54897        0.07740
C          4.01488       -2.01987       -0.23903
C          3.24737       -1.41580        0.72672
C          3.69137       -1.33005        2.02059
C          4.92504       -1.84868        2.38482
H          6.65565       -2.85308        1.64687
H          3.62860       -2.07930       -1.24240
H          3.05871       -0.86607        2.75501
C          2.82806        3.38161       -1.40540
C          1.86437        3.32702       -0.40483
C          1.48772        2.07525        0.06571
C          2.05986        0.93482       -0.44851
C          3.02365        1.01155       -1.42369
C          3.43257        2.24239       -1.92063
H          3.13659        4.33656       -1.78687
H          0.75332        1.99271        0.84713
H          3.46764        0.10019       -1.78325
Pd        -0.18476       -0.45858        1.60356
C         -5.22719       -4.66671        1.08980
C         -3.83158       -4.54170        0.45291
C         -2.77312       -4.63200        1.57056
C         -3.60022       -5.70516       -0.52865
H         -5.41214       -3.83893        1.77415
H         -6.01001       -4.65581        0.33225
H         -5.31828       -5.59634        1.65128
H         -2.83865       -5.58800        2.08959
H         -1.76566       -4.54508        1.16434
H         -2.91546       -3.84531        2.31113
H         -3.64501       -6.66453       -0.01350
H         -4.35139       -5.71548       -1.31739
H         -2.62139       -5.62151       -0.99944
C         -4.72387       -1.23681       -4.54853
C         -5.51303       -1.45343       -3.24461
C         -6.29866       -0.17260       -2.90654
C         -6.52004       -2.59785       -3.46845
H         -5.39302       -0.97473       -5.36794
H         -3.99683       -0.43237       -4.44328
H         -4.18971       -2.14219       -4.83328
H         -6.83199       -0.28560       -1.96288
H         -5.63261        0.68457       -2.81760
H         -7.02921        0.05458       -3.68274
H         -6.00962       -3.52358       -3.73359
H         -7.11742       -2.77483       -2.57423
H         -7.20560       -2.35609       -4.28060
C         -6.39583        3.01574       -0.47922
C         -5.18843        3.96816       -0.44187
C         -4.69313        4.23827       -1.87679
C         -5.63256        5.30993        0.17259
H         -6.77020        2.82884        0.52708
H         -7.20880        3.43568       -1.07123
H         -6.12205        2.05576       -0.91411
H         -5.45595        4.75228       -2.46133
H         -3.80004        4.86293       -1.86414
H         -4.44863        3.31376       -2.39802
H         -6.38943        5.78809       -0.44913
H         -6.06648        5.16726        1.16192
H         -4.79079        5.99691        0.25925
C         -3.63117        3.55192        4.67134
C         -2.37199        3.65753        3.79114
C         -1.91371        5.12469        3.71436
C         -1.25263        2.82555        4.44948
H         -3.98270        2.52126        4.71522
H         -3.42462        3.88211        5.68921
H         -4.44164        4.16562        4.28006
H         -2.69507        5.76314        3.30378
H         -1.65644        5.50548        4.70256
H         -1.03574        5.22028        3.07735
H         -1.03700        3.19235        5.45274
H         -1.54157        1.77832        4.53702
H         -0.32909        2.88017        3.87490
C          5.47804       -3.23640       -2.36385
C          6.15598       -3.21102       -0.97923
C          6.45552       -4.66142       -0.55803
C          7.47149       -2.41956       -1.09549
H          5.26733       -2.22724       -2.71712
H          6.12247       -3.71474       -3.10128
H          4.54220       -3.79420       -2.33229
H          5.53113       -5.22793       -0.44676
H          7.07221       -5.16433       -1.30276
H          6.98649       -4.69727        0.39244
H          8.01490       -2.41427       -0.15133
H          8.12305       -2.85450       -1.85318
H          7.27432       -1.38435       -1.37353
C          6.77171       -2.37145        4.05845
C          5.38308       -1.73891        3.84599
C          4.37010       -2.46646        4.74992
C          5.45572       -0.25274        4.24325
H          7.07998       -2.28600        5.10040
H          6.76329       -3.43094        3.80314
H          7.52667       -1.87414        3.44976
H          4.28496       -3.51518        4.46618
H          4.67717       -2.42251        5.79461
H          3.37973       -2.01887        4.67526
H          5.79600       -0.14001        5.27241
H          6.14898        0.28504        3.59682
H          4.48102        0.22677        4.16054
C          1.57820        4.58141        1.74164
C          1.27171        4.59362        0.23267
C         -0.24971        4.62491        0.01148
C          1.87364        5.87590       -0.37409
H          1.20575        5.48454        2.22423
H          1.11782        3.72446        2.23053
H          2.65272        4.52615        1.91487
H         -0.69689        5.50065        0.48121
H         -0.48293        4.66033       -1.05198
H         -0.72464        3.74208        0.43345
H          1.44780        6.76207        0.09648
H          2.95290        5.91099       -0.22660
H          1.66643        5.93932       -1.44222
C          5.15553        0.99789       -3.32181
C          4.55060        2.37059       -2.96572
C          5.67568        3.25807       -2.40010
C          3.98375        3.00686       -4.24641
H          4.40518        0.33543       -3.75115
H          5.95603        1.10544       -4.05358
H          5.57697        0.51613       -2.43967
H          6.06649        2.83852       -1.47322
H          6.50066        3.33980       -3.10763
H          5.31976        4.26543       -2.18805
H          3.19936        2.38223       -4.67064
H          3.55803        3.98925       -4.04511
H          4.76190        3.12656       -5.00004
H         -1.59768       -1.28930       -3.95269
H          1.99714       -1.43949       -3.74500
H         -2.33881       -2.87640       -3.76738
H         -0.88287       -2.69698       -4.74574
H          2.35279       -0.14897       -4.88927
H          0.96829       -1.20356       -5.16102
