105
-153.06556669
Cl        -0.01426        1.90148        3.09899
Pd        -0.46188        1.31883        0.97118
P         -1.11172        0.50377       -1.14864
N         -0.72773       -1.00710       -1.97090
C          0.18892       -1.99951       -1.62689
C          0.32306       -2.48165       -0.30079
C          1.28364       -3.47604       -0.02226
C          1.40210       -4.00088        1.38909
C          2.23039       -5.28780        1.52752
C          3.50091       -5.21653        0.67573
C          3.14670       -5.02757       -0.80659
C          2.08603       -3.98318       -1.04828
C          1.89803       -3.53037       -2.34813
C          0.96580       -2.56825       -2.63522
H          0.84435       -2.21514       -3.64440
H          2.50791       -3.93937       -3.13586
H          4.04337       -4.76055       -1.38058
H          4.11765       -4.37412        1.01349
H          2.47854       -5.48167        2.58063
H          1.84450       -3.21447        2.01130
C         -0.67588       -2.12266        0.73435
C         -0.25223       -1.53404        1.95662
C         -1.18419       -1.40078        2.99006
C         -2.48214       -1.80998        2.82810
C         -2.91768       -2.37807        1.63707
C         -4.35194       -2.84324        1.55537
C         -4.81576       -3.21932        0.13893
C         -3.73377       -4.01656       -0.59379
C         -2.43842       -3.19914       -0.70398
C         -2.01375       -2.53645        0.58433
H         -1.62202       -3.83836       -1.06266
H         -4.08507       -4.33036       -1.58700
H         -5.03791       -2.30776       -0.42928
H         -5.00063       -2.06329        1.97333
H         -3.18486       -1.69418        3.63590
H         -0.87255       -0.94353        3.91273
N          1.04473       -1.03152        2.13693
P          1.60221        0.18911        0.99395
C          2.61662       -0.36031       -0.36549
C          2.41328        0.20187       -1.60088
C          3.23349       -0.15147       -2.65654
C          4.26396       -1.06433       -2.47295
C          4.47302       -1.59303       -1.20556
C          3.65030       -1.23901       -0.15122
H          3.80749       -1.64140        0.83692
H          5.28192       -2.28612       -1.04986
C          5.15068       -1.44382       -3.60689
H          3.07426        0.27768       -3.63085
H          1.60827        0.90475       -1.73231
C          2.53475        1.49650        1.79874
C          3.25025        1.23518        2.94233
C          3.97113        2.24938        3.54642
C          3.97754        3.52947        3.00863
C          3.26460        3.76687        1.84106
C          2.54513        2.75168        1.23723
H          1.98930        2.93336        0.33030
H          3.27509        4.75231        1.40764
C          4.76922        4.61583        3.64933
H          4.53444        2.05192        4.44244
H          3.25009        0.23952        3.35530
H          1.20122       -0.60046        3.03880
H         -1.00294       -0.91417       -2.94061
C         -0.61803        1.87520       -2.20720
C         -0.87616        3.16885       -1.82179
C         -0.48165        4.22414       -2.62134
C          0.18114        3.99238       -3.81843
C          0.41918        2.68039       -4.20384
C          0.02035        1.62798       -3.40049
H          0.22168        0.61244       -3.69697
H          0.92082        2.48801       -5.13689
C          0.58965        5.12696       -4.69213
H         -0.68747        5.23690       -2.31947
H         -1.39302        3.34716       -0.89410
C         -2.90742        0.53157       -1.08798
C         -3.58962        0.80733       -2.24926
C         -4.97316        0.82569       -2.24828
C         -5.68191        0.56639       -1.08321
C         -4.97485        0.29958        0.08045
C         -3.59284        0.26735        0.07224
H         -3.04128        0.05507        0.97384
H         -5.51405        0.12179        0.99500
C         -7.16997        0.61349       -1.06951
H         -5.51088        1.04776       -3.15414
H         -3.03654        1.01148       -3.15276
Cl        -2.30396        2.61572        0.96764
H          2.80144       -5.97911       -1.22822
H          1.62644       -6.14538        1.20545
H          4.12017       -6.11307        0.82096
H          0.39353       -4.15998        1.79110
H         -3.53220       -4.94508       -0.04502
H         -2.56123       -2.42166       -1.46673
H         -4.47193       -3.70664        2.22073
H         -5.75968       -3.78160        0.17196
H          4.61649       -1.39545       -4.55688
H          6.00957       -0.77419       -3.66836
H          5.52434       -2.46210       -3.48982
H          4.79380        4.49699        4.73344
H          5.79788        4.61152        3.28630
H          4.34021        5.59549        3.43435
H          1.47875        4.87667       -5.27261
H         -0.20748        5.38412       -5.39096
H          0.81953        6.01519       -4.10196
H         -7.58154        0.37358       -2.05089
H         -7.57888       -0.10278       -0.35536
H         -7.52288        1.60698       -0.78975
