58
-89.85844367
P          1.78404       -0.29872        0.72563
C          1.92055        1.49747        0.71099
C          0.77694        2.24449        0.86337
C          0.83759        3.62426        0.85152
C          2.05530        4.25314        0.68757
C          3.20469        3.50331        0.53032
C          3.13528        2.12176        0.54053
H          4.02443        1.52833        0.40819
H         -0.16828        1.74223        0.95185
C          3.42319       -1.01459        0.45656
C          4.36476       -0.82618        1.44527
C          5.62829       -1.37543        1.31500
C          5.94344       -2.11745        0.19470
C          5.00026       -2.30558       -0.79506
C          3.74206       -1.75016       -0.66159
H          3.01288       -1.86837       -1.44290
H          4.10857       -0.24703        2.31893
C          1.32929       -0.86172        2.43284
C         -0.09912       -1.33361        2.63939
C         -1.13023       -0.23067        2.46748
P         -1.64920       -0.06156        0.71064
C         -2.90127       -1.32114        0.43072
C         -4.23011       -0.97684        0.53103
C         -5.20724       -1.93340        0.32160
C         -4.84483       -3.22969        0.01337
C         -3.51041       -3.57085       -0.08559
C         -2.53574       -2.61229        0.12526
H         -1.49133       -2.86508        0.03807
H         -4.49719        0.04058        0.76809
C         -2.37190        1.56458        0.42008
C         -2.75350        2.36584        1.47327
C         -3.27775        3.62199        1.22698
C         -3.42182        4.06684       -0.07226
C         -3.04941        3.25661       -1.12599
C         -2.52591        2.00269       -0.87475
H         -2.24190        1.35167       -1.68447
H         -2.64335        2.01043        2.48469
Pd         0.04192       -0.46942       -0.85206
Cl         1.58000       -0.68881       -2.46134
Cl        -1.64008       -0.69041       -2.33696
H         -2.04595       -0.44067        3.02648
H         -0.74488        0.72140        2.83600
H         -0.32284       -2.15704        1.94813
H         -0.19074       -1.76997        3.64665
H          2.03219       -1.66229        2.67817
H          1.55939       -0.03310        3.10593
H         -0.06504        4.20299        0.95852
H          4.15501        3.99343        0.39623
H          6.36343       -1.22548        2.08857
H          5.24592       -2.87801       -1.67451
H         -6.24841       -1.66577        0.39629
H         -3.22750       -4.58125       -0.33122
H         -3.57325        4.25265        2.04937
H         -3.16660        3.59867       -2.14112
H          2.10816        5.32959        0.67581
H          6.92651       -2.54722        0.09143
H         -5.60470       -3.97577       -0.15308
H         -3.82959        5.04594       -0.26414
