105
-153.06535103
Cl        -0.04066        1.89997        3.10533
Pd        -0.48064        1.29737        0.97800
P         -1.09790        0.50439       -1.14789
N         -0.70722       -1.00838       -1.96039
C          0.21612       -1.99657       -1.61987
C          0.35352       -2.48674       -0.29625
C          1.30424       -3.49554       -0.03030
C          1.41000       -4.05287        1.37035
C          2.64807       -4.92813        1.62502
C          2.89916       -5.88406        0.45617
C          3.11003       -5.09717       -0.84497
C          2.08090       -4.01810       -1.06891
C          1.90031       -3.54480       -2.36218
C          0.98454       -2.56362       -2.63540
H          0.86365       -2.20012       -3.64098
H          2.50006       -3.95550       -3.15674
H          4.10450       -4.63552       -0.84086
H          3.75731       -6.53918        0.66332
H          3.52637       -4.28427        1.75997
H          1.40386       -3.22010        2.08198
C         -0.64774       -2.13210        0.73951
C         -0.23412       -1.52786        1.95784
C         -1.17082       -1.39322        2.98699
C         -2.46609       -1.80938        2.82232
C         -2.89375       -2.38637        1.63283
C         -4.32746       -2.85157        1.54495
C         -4.78403       -3.22485        0.12563
C         -3.70189       -4.03000       -0.59820
C         -2.40058       -3.22096       -0.70088
C         -1.98373       -2.55082        0.58630
H         -1.58429       -3.86720       -1.04708
H         -4.04835       -4.34327       -1.59326
H         -4.99524       -2.31172       -0.44431
H         -4.97812       -2.07224        1.96107
H         -3.17305       -1.69040        3.62593
H         -0.86580       -0.92718        3.90747
N          1.05834       -1.01276        2.13942
P          1.60473        0.20965        0.99316
C          2.62231       -0.34165       -0.36304
C          2.42668        0.22475       -1.59772
C          3.24797       -0.13104       -2.65168
C          4.28012       -1.04119       -2.46426
C          4.46861       -1.58987       -1.20214
C          3.64402       -1.23440       -0.14971
H          3.78805       -1.64919        0.83532
H          5.26330       -2.29981       -1.04946
C          5.13889       -1.45871       -3.60639
H          3.08734        0.29318       -3.62793
H          1.62496        0.93101       -1.73087
C          2.51725        1.53471        1.79068
C          3.24026        1.28798        2.93272
C          3.94284        2.31642        3.53438
C          3.93288        3.59331        2.98880
C          3.19755        3.82026        1.83319
C          2.49655        2.79087        1.23172
H          1.92759        2.96319        0.33111
H          3.17364        4.80953        1.40910
C          4.66201        4.70864        3.65355
H          4.50211        2.13301        4.43588
H          3.25701        0.29353        3.34838
H          1.20862       -0.57570        3.03947
H         -0.98519       -0.91814       -2.92953
C         -0.59914        1.87646       -2.20222
C         -0.84236        3.16976       -1.80607
C         -0.44300        4.22662       -2.60115
C          0.20953        3.99662       -3.80422
C          0.43263        2.68510       -4.20007
C          0.02913        1.63107       -3.40120
H          0.21972        0.61565       -3.70511
H          0.92643        2.49433       -5.13763
C          0.62264        5.13333       -4.67297
H         -0.63720        5.23923       -2.29121
H         -1.35145        3.34647       -0.87361
C         -2.89327        0.53688       -1.08595
C         -3.57478        0.81403       -2.24729
C         -4.95827        0.83597       -2.24621
C         -5.66757        0.57837       -1.08107
C         -4.96110        0.30973        0.08251
C         -3.57930        0.27496        0.07455
H         -3.02942        0.05878        0.97599
H         -5.50087        0.13199        0.99676
C         -7.15554        0.62819       -1.06654
H         -5.49540        1.05919       -3.15214
H         -3.02116        1.01629       -3.15091
Cl        -2.27519        2.66285        1.00584
H          3.10667       -5.77810       -1.70579
H          2.54517       -5.48509        2.56705
H          2.03702       -6.55327        0.34198
H          0.50029       -4.62678        1.58303
H         -3.51004       -4.95887       -0.04656
H         -2.51175       -2.44837       -1.47034
H         -4.45033       -3.71613        2.20826
H         -5.73215       -3.78038        0.15197
H          4.72167       -2.33575       -4.10315
H          5.22526       -0.66188       -4.34642
H          6.14609       -1.70927       -3.27050
H          5.01756        5.43690        2.92329
H          4.01250        5.22863        4.35897
H          5.52960        4.34059        4.20297
H          0.87079        6.01335       -4.07792
H          1.50168        4.87675       -5.26589
H         -0.17913        5.40677       -5.36023
H         -7.56581       -0.10602       -0.37163
H         -7.50647        1.61461       -0.76048
H         -7.56765        0.41542       -2.05393
