45
-71.81646800
C          0.67993        0.55014        2.59457
P          1.07035        0.56637        0.81115
P         -1.57412        0.24986       -0.90919
C         -2.07183       -0.11914       -2.62574
Cl         1.90726       -2.41106        0.31681
H          1.20737        1.35721        3.09502
H         -1.20605       -0.06437       -3.27953
Cl        -1.10038       -2.95112       -1.07654
C          0.32673        2.00872        0.02121
C         -0.80864        1.87171       -0.74624
C         -1.37610        2.97480       -1.34998
C         -0.79301        4.21998       -1.19183
C          0.34911        4.35673       -0.42661
C          0.91025        3.24845        0.18338
H         -2.27294        2.85730       -1.93642
H         -1.23228        5.08321       -1.66413
H          0.80337        5.32607       -0.30342
H          1.80246        3.33924        0.78214
Pd         0.09299       -1.23320       -0.28216
H         -2.81747        0.59320       -2.96645
H          0.97871       -0.39756        3.03356
H         -2.49023       -1.12030       -2.67765
C         -5.02435        0.01280        2.04476
C         -3.80485       -0.55173        2.36213
C         -2.76015       -0.48839        1.45798
C         -2.94315        0.13191        0.24288
C         -4.15438        0.70332       -0.07502
C         -5.20098        0.64143        0.82796
H         -5.83930       -0.03639        2.74838
H         -3.66627       -1.04181        3.31184
H         -1.80555       -0.92829        1.69533
H         -4.27583        1.20020       -1.02429
H         -6.15162        1.08540        0.58201
C          5.53507        0.54940       -0.06834
C          4.62689        0.86451       -1.05954
C          3.27282        0.87285       -0.77525
C          2.83810        0.57226        0.49570
C          3.73924        0.25089        1.48502
C          5.09347        0.24119        1.20323
H          6.59008        0.53961       -0.28858
H          4.97040        1.10010       -2.05338
H          2.54971        1.11104       -1.53970
H          3.38295       -0.00096        2.47058
H          5.80207       -0.01198        1.97469
H         -0.38731        0.68755        2.74204
