111
-148.55578227
P         -2.33559        2.35296        0.64977
P          0.04957        0.27127        0.44794
C         -1.36121        1.96062        2.12143
C         -0.35614        1.02242        2.03860
C         -2.45053        4.17448        0.36184
C         -1.60178        4.57952       -0.82382
C         -1.64736        2.56384        3.32911
H         -2.43097        3.30236        3.38194
C         -0.93200        2.21104        4.46046
H         -1.15453        2.67998        5.40501
C          0.05856        1.25091        4.38178
H          0.60896        0.96842        5.26410
C          0.34484        0.65232        3.16783
H          1.10714       -0.10763        3.09347
Pd        -1.52230        1.05917       -1.07611
Cl        -3.23465        1.81120       -2.31680
Cl        -0.68682       -0.30860       -2.64806
C         -3.96184        4.40303        0.17247
C         -4.13187        1.93916        0.85049
H         -1.67040        5.65281       -1.01660
H         -0.55013        4.32888       -0.66366
H         -1.92809        4.05978       -1.72687
H         -4.19042        4.37056       -0.90175
H         -4.24134        5.41485        0.50332
H         -4.42181        1.41444       -0.06955
C         -4.80340        3.32383        0.91040
C         -4.38553        1.06766        2.06316
H         -2.09786        4.65848        1.28195
H         -4.92642        3.61248        1.96325
H         -5.82275        3.27211        0.49865
H         -4.10401        1.58582        2.98090
H         -5.44112        0.79961        2.14827
H         -3.80366        0.14489        2.02069
C         -0.95304       -4.16353        0.63155
C         -1.98772       -3.19506        0.57052
C         -1.63116       -1.85711        0.55190
C         -0.31562       -1.47771        0.49640
C          0.68579       -2.41096        0.43773
C          0.39897       -3.76574        0.46853
O         -1.26656       -5.52303        0.89686
C         -3.47796       -3.56746        0.52980
H         -2.38316       -1.08751        0.57627
H          1.70179       -2.06327        0.37229
C          1.54884       -4.77865        0.35334
C          4.35012        1.09412       -0.86046
C          3.44727        0.43836       -1.73434
C          2.14692        0.24198       -1.30374
C          1.74595        0.60273       -0.04447
C          2.64206        1.15475        0.83433
C          3.96034        1.37741        0.47312
O          5.62986        1.49442       -1.32935
C          3.84561       -0.02737       -3.14376
H          1.40892       -0.17835       -1.96263
H          2.29515        1.42381        1.81497
C          4.93816        1.93586        1.51981
C         -3.69236       -4.93061       -0.15273
C         -4.03438       -3.59830        1.96100
C         -4.27275       -2.52553       -0.29152
C          1.08028       -6.07567       -0.33135
C          2.69499       -4.20536       -0.51020
C          2.09433       -5.08859        1.75526
C         -1.31745       -5.84246        2.28157
H         -3.25929       -4.93057       -1.15245
H         -3.22713       -5.73484        0.41162
H         -4.75347       -5.16185       -0.24224
H         -3.51524       -4.33571        2.56905
H         -3.91445       -2.62804        2.44241
H         -5.09532       -3.84695        1.96217
H         -4.31386       -1.56003        0.20949
H         -3.82236       -2.38148       -1.27332
H         -5.30177       -2.85205       -0.43949
H          0.32801       -6.58849        0.26287
H          0.64519       -5.85884       -1.30637
H          1.91169       -6.76508       -0.47608
H          3.45824       -4.96158       -0.69226
H          2.31732       -3.87240       -1.47620
H          3.18779       -3.36456       -0.02439
H          2.45574       -4.18062        2.23753
H          1.32303       -5.51691        2.39127
H          2.92115       -5.79661        1.70499
H         -0.59857       -6.63183        2.50069
H         -1.08578       -4.96290        2.88357
H         -2.31254       -6.20579        2.53762
C          5.66262        2.80303       -1.88534
C          3.59741        1.11151       -4.14424
C          5.32126       -0.46363       -3.18675
C          3.00346       -1.24982       -3.57460
C          4.52801        1.49184        2.94288
C          6.36520        1.40922        1.28185
C          4.92302        3.47087        1.46376
H          2.54726        1.40278       -4.14201
H          4.18515        1.99149       -3.89484
H          3.86089        0.80630       -5.15656
H          5.51194       -1.24360       -2.45028
H          5.58640       -0.85276       -4.16948
H          5.98780        0.36776       -2.97179
H          1.95681       -0.98846       -3.72252
H          3.36699       -1.65725       -4.51763
H          3.05834       -2.03917       -2.82636
H          5.28917        1.77348        3.67017
H          3.59674        1.95938        3.25928
H          4.40371        0.41027        2.99089
H          6.76018        1.74899        0.32778
H          7.04504        1.75352        2.06081
H          6.37644        0.31979        1.27891
H          5.22909        3.83333        0.48551
H          5.59848        3.89527        2.20613
H          3.92173        3.85347        1.66040
H          4.67376        3.26101       -1.83997
H          6.37397        3.41718       -1.33344
H          5.99245        2.75148       -2.92281
