45
-71.81550865
C          0.39133        0.45038        2.53359
P          0.97618        0.55601        0.80844
P         -1.61663        0.38194       -1.01472
C         -2.40744        0.18395       -2.64595
Cl         1.66850       -2.48189        0.29813
H          0.68961       -0.49848        2.97022
H         -1.67663        0.34772       -3.43274
Cl        -1.14442       -2.66787       -1.60149
C          0.34222        2.03733       -0.00491
C         -0.76928        1.96426       -0.81686
C         -1.25823        3.10162       -1.42593
C         -0.62064        4.31419       -1.23028
C          0.49738        4.38569       -0.42194
C          0.97955        3.24445        0.19453
H         -2.13844        3.03684       -2.04468
H         -0.99901        5.20349       -1.70694
H          0.99364        5.32993       -0.26932
H          1.85032        3.28451        0.82933
Pd         0.01618       -1.15035       -0.42382
H         -3.21842        0.89788       -2.75756
H         -0.69212        0.52293        2.56053
H         -2.80780       -0.82138       -2.74049
C         -4.45853       -0.31730        2.46100
C         -4.12969       -1.35931        1.61602
C         -3.27393       -1.13726        0.55304
C         -2.76159        0.12126        0.33939
C         -3.07714        1.16092        1.18332
C         -3.93206        0.94212        2.24844
H         -5.12435       -0.48836        3.29109
H         -4.53212       -2.34412        1.78748
H         -2.97478       -1.94195       -0.09959
H         -2.65110        2.13562        1.00829
H         -4.18481        1.75300        2.91166
C          5.49160        0.29156        0.32229
C          4.92783        0.04099        1.55776
C          3.55680        0.12560        1.72107
C          2.76120        0.46283        0.64989
C          3.31771        0.70821       -0.58486
C          4.68888        0.62467       -0.75065
H          6.55959        0.22316        0.19440
H          5.55419       -0.22495        2.39339
H          3.10552       -0.07780        2.67847
H          2.67567        0.96195       -1.41407
H          5.12764        0.81582       -1.71615
H          0.81356        1.26214        3.11901
