105
-153.07026937
Cl         0.44362        2.01227        3.02277
Pd        -0.31804        1.43379        0.97615
P         -1.24337        0.74132       -1.03469
N         -0.21829       -0.37545       -1.91980
C          0.33725       -1.62082       -1.65921
C          0.25264       -2.28813       -0.41212
C          0.95991       -3.49224       -0.21809
C          0.85910       -4.17924        1.12404
C          1.40067       -5.61735        1.14927
C          2.71684       -5.72477        0.37363
C          2.51830       -5.30590       -1.09088
C          1.72454       -4.03442       -1.25280
C          1.75440       -3.38955       -2.48194
C          1.07833       -2.21403       -2.68122
H          1.14108       -1.71308       -3.63165
H          2.33651       -3.81693       -3.28082
H          3.49021       -5.18217       -1.58575
H          3.46648       -5.07410        0.84101
H          1.52930       -5.96791        2.18305
H          1.39396       -3.57054        1.86253
C         -0.69787       -1.86632        0.64369
C         -0.21754       -1.27363        1.84485
C         -1.11817       -1.08998        2.89908
C         -2.43272       -1.46091        2.77856
C         -2.91104       -2.07003        1.62425
C         -4.35306       -2.52112        1.60587
C         -4.80883       -3.20375        0.30348
C         -3.67551       -4.00777       -0.34010
C         -2.47475       -3.09895       -0.63735
C         -2.03509       -2.29517        0.56088
H         -1.63229       -3.69837       -1.00381
H         -4.02152       -4.51317       -1.25291
H         -5.15117       -2.44364       -0.40755
H         -4.99021       -1.65392        1.82071
H         -3.11253       -1.29466        3.59703
H         -0.77028       -0.61609        3.80002
N          1.10538       -0.83214        1.98822
P          1.74928        0.23887        0.73711
C          2.93959       -0.63184       -0.28367
C          3.25768       -0.18209       -1.54270
C          4.21951       -0.84620       -2.28206
C          4.88194       -1.94746       -1.75549
C          4.55955       -2.37228       -0.47378
C          3.59361       -1.70973        0.26194
H          3.33741       -2.03044        1.25907
H          5.06469       -3.22715       -0.05814
C          5.88504       -2.68800       -2.56911
H          4.45920       -0.51424       -3.27777
H          2.75239        0.68066       -1.94360
C          2.70766        1.59065        1.43001
C          3.50059        1.38017        2.53188
C          4.24622        2.42482        3.04772
C          4.19994        3.68309        2.46203
C          3.40893        3.86761        1.33584
C          2.66479        2.82241        0.81996
H          2.04782        2.96297       -0.05387
H          3.37786        4.83570        0.86582
C          5.01657        4.80306        3.00623
H          4.86930        2.26834        3.91165
H          3.53639        0.40131        2.98243
H          1.31587       -0.37623        2.86691
H         -0.22688       -0.06969       -2.88517
C         -1.05753        2.33178       -1.84634
C          0.18835        2.69043       -2.30293
C          0.37837        3.93183       -2.88228
C         -0.67899        4.82396       -2.99897
C         -1.93093        4.44101       -2.53506
C         -2.11756        3.20016       -1.95386
H         -3.08340        2.90829       -1.57461
H         -2.75860        5.12338       -2.62661
C         -0.47797        6.15259       -3.64089
H          1.35120        4.21610       -3.24561
H          1.00696        1.99746       -2.19989
C         -2.95561        0.26277       -1.28040
C         -3.30251       -0.29922       -2.48649
C         -4.62316       -0.62378       -2.74251
C         -5.60671       -0.37882       -1.79407
C         -5.24116        0.21197       -0.59234
C         -3.92087        0.53013       -0.33970
H         -3.64068        1.01698        0.57813
H         -5.99854        0.42693        0.14204
C         -7.03103       -0.70906       -2.07581
H         -4.89800       -1.06694       -3.68436
H         -2.53775       -0.48188       -3.22441
Cl        -2.27604        2.40939        1.49640
H          2.00939       -6.10746       -1.63938
H          0.66077       -6.29212        0.70064
H          3.12736       -6.74240        0.43891
H         -0.18952       -4.17119        1.44695
H         -3.36434       -4.80849        0.34254
H         -2.71958       -2.41378       -1.45426
H         -4.50481       -3.20729        2.44784
H         -5.68350       -3.84399        0.48523
H          6.42031       -2.01573       -3.24111
H          6.62383       -3.17831       -1.93364
H          5.40071       -3.45493       -3.17520
H          4.53719        5.76537        2.82138
H          5.15213        4.70350        4.08406
H          6.00385        4.82373        2.54278
H         -1.23518        6.86737       -3.31563
H          0.49857        6.56708       -3.38642
H         -0.53688        6.07100       -4.72712
H         -7.57786       -0.91402       -1.15431
H         -7.52709        0.11853       -2.58461
H         -7.11151       -1.59229       -2.71112
