111
-148.54980876
P         -2.38681        2.33226       -0.21448
P         -0.00725        0.36231        0.50672
C         -1.77703        2.24553        1.48754
C         -0.77966        1.34986        1.80548
C         -2.47912        4.07244       -0.83035
C         -1.67200        4.22045       -2.10178
C         -2.32990        3.04050        2.47099
H         -3.09219        3.75640        2.21027
C         -1.90040        2.91485        3.78077
H         -2.33362        3.53297        4.55010
C         -0.92558        1.99073        4.10393
H         -0.59917        1.88382        5.12533
C         -0.36475        1.20475        3.11331
H          0.38955        0.47134        3.35250
Pd        -1.18843        0.79264       -1.45505
Cl        -2.68140        1.09995       -3.10207
Cl        -0.02591       -0.85090       -2.45455
C         -3.99332        4.30326       -1.01892
C         -4.16243        1.82565       -0.39140
H         -1.71247        5.24239       -2.48659
H         -0.62289        3.96048       -1.93977
H         -2.05797        3.55885       -2.87973
H         -4.15722        4.98586       -1.86543
H         -4.40598        4.81899       -0.13945
H         -4.16089        0.87751       -0.94656
C         -4.75923        2.96807       -1.23792
C         -4.83953        1.64749        0.95102
H         -2.07270        4.71427       -0.03683
H         -5.82578        3.08719       -0.99728
H         -4.72298        2.69942       -2.30393
H         -5.85811        1.26837        0.83958
H         -4.28622        0.95340        1.58638
H         -4.90229        2.59892        1.48101
C         -1.14186       -4.02846        0.80476
C          0.22208       -3.67886        0.63254
C          0.54970       -2.33566        0.56430
C         -0.40509       -1.36664        0.72478
C         -1.70691       -1.69678        0.99877
C         -2.09966       -3.02230        1.09434
O         -1.55555       -5.37593        0.63243
C          1.33187       -4.72498        0.44903
H          1.55764       -2.02774        0.35126
H         -2.42086       -0.89901        1.11520
C         -3.55682       -3.34166        1.46152
C          4.48205        1.12451        0.08647
C          3.79305        0.34574       -0.87657
C          2.42887        0.17472       -0.72295
C          1.75927        0.67155        0.36430
C          2.44106        1.34754        1.34338
C          3.80707        1.55852        1.25551
O          5.83531        1.49568       -0.13421
C          4.49229       -0.28681       -2.09049
H          1.85546       -0.34268       -1.47042
H          1.88700        1.72581        2.18240
C          4.53086        2.26718        2.41212
C          2.67399       -4.19852        1.00666
C          1.00916       -6.02248        1.21191
C          1.50169       -5.01957       -1.04933
C         -3.67177       -4.70293        2.17144
C         -4.11177       -2.28071        2.43827
C         -4.41291       -3.33377        0.18590
C         -1.93702       -5.69060       -0.70117
H          2.56095       -3.86736        2.03858
H          3.43385       -4.97942        0.98685
H          3.05796       -3.36538        0.42068
H          0.11532       -6.50151        0.82041
H          1.82748       -6.73766        1.13215
H          0.84139       -5.81491        2.26818
H          0.58719       -5.42447       -1.47643
H          1.74559       -4.10891       -1.59575
H          2.30098       -5.74058       -1.21846
H         -3.37583       -5.51901        1.51740
H         -3.03046       -4.73160        3.05171
H         -4.69600       -4.89283        2.49144
H         -3.45468       -2.16561        3.29993
H         -4.21959       -1.31051        1.95801
H         -5.09750       -2.56779        2.80370
H         -4.06661       -4.08040       -0.52508
H         -5.45723       -3.54436        0.41483
H         -4.36393       -2.36192       -0.30496
H         -1.81601       -4.81883       -1.34567
H         -1.31955       -6.50710       -1.07526
H         -2.97780       -6.01341       -0.71923
C          5.99496        2.72211       -0.83634
C          5.94054       -0.68358       -1.75162
C          3.76510       -1.57843       -2.53019
C          4.47265        0.70642       -3.26206
C          3.81247        1.99807        3.75443
C          5.97206        1.74747        2.56489
C          4.53778        3.78200        2.15739
H          6.54424        0.18676       -1.50726
H          5.96309       -1.35668       -0.89517
H          6.41553       -1.18837       -2.59247
H          4.32592       -2.09121       -3.31119
H          3.65624       -2.26546       -1.69218
H          2.77570       -1.36903       -2.93369
H          4.95417        0.28150       -4.14238
H          3.44833        0.96515       -3.52938
H          4.99070        1.62778       -3.00736
H          2.83679        2.48022        3.79412
H          3.67479        0.92878        3.91307
H          4.39458        2.38761        4.58933
H          6.46372        2.20229        3.42448
H          5.97742        0.66684        2.70349
H          6.57109        1.97373        1.68640
H          3.52015        4.16368        2.07764
H          5.05524        4.02442        1.23246
H          5.03457        4.31212        2.96959
H          5.02228        3.15851       -1.06673
H          6.57175        3.41884       -0.22828
H          6.54278        2.54550       -1.76179
