111
-148.55239361
P         -2.46119        1.99596        1.22358
P          0.18225        0.38475        0.56815
C         -1.32151        1.54541        2.56241
C         -0.15284        0.87846        2.26646
C         -3.20144        3.66557        1.53499
C         -2.90267        4.62952        0.40810
C         -1.61722        1.86326        3.87288
H         -2.53467        2.38026        4.10185
C         -0.73920        1.50952        4.88298
H         -0.97019        1.75678        5.90628
C          0.43104        0.83924        4.58209
H          1.11313        0.56160        5.36876
C          0.72386        0.51971        3.26845
H          1.62645       -0.01435        3.01609
Pd        -1.34221        1.51240       -0.74998
Cl        -3.09527        2.40066       -1.82925
Cl        -0.10832        1.02259       -2.56282
C         -4.70256        3.35739        1.72207
C         -3.99144        0.95894        1.16185
H         -1.82746        4.72002        0.23663
H         -3.35724        4.28717       -0.52209
H         -3.29780        5.62639        0.61744
H         -5.29935        4.18770        1.31747
H         -4.94564        3.31563        2.79396
H         -3.92681        0.34897        0.25025
C         -5.10997        2.01498        1.05090
C         -4.09890        0.07598        2.38611
H         -2.75516        4.03240        2.46922
H         -6.03448        1.62135        1.49833
H         -5.34498        2.19638       -0.00841
H         -3.22760       -0.57531        2.48212
H         -4.15786        0.68055        3.29291
H         -4.99136       -0.55339        2.35015
C         -1.19735       -3.89281       -0.17935
C         -1.28438       -3.35088        1.12889
C         -0.87439       -2.04307        1.32849
C         -0.34910       -1.30437        0.30144
C         -0.19191       -1.84796       -0.94519
C         -0.55826       -3.15626       -1.20915
O         -1.77649       -5.15938       -0.45921
C         -1.83468       -4.15920        2.31470
H         -0.95930       -1.57977        2.29520
H          0.20034       -1.21665       -1.72346
C         -0.27253       -3.73450       -2.60385
C          4.49036        0.79166       -0.83481
C          4.08803       -0.36258       -0.11494
C          2.76849       -0.45031        0.29740
C          1.89376        0.58467        0.09152
C          2.30880        1.75025       -0.49653
C          3.61104        1.89927       -0.94437
O          5.75347        0.82085       -1.48355
C          5.04113       -1.53002        0.18501
H          2.39633       -1.34535        0.76611
H          1.58600        2.53613       -0.63320
C          4.02724        3.22673       -1.59622
C         -1.41737       -5.63713        2.20758
C         -1.27629       -3.62514        3.65328
C         -3.36620       -4.04421        2.34846
C          1.00686       -3.10192       -3.19996
C         -0.02929       -5.25307       -2.53939
C         -1.45292       -3.42018       -3.53535
C         -3.11435       -5.09522       -0.93735
H         -1.75600       -6.20384        3.07455
H         -1.84187       -6.10478        1.32233
H         -0.33330       -5.72645        2.14587
H         -1.56542       -4.27465        4.47920
H         -0.18778       -3.57916        3.62972
H         -1.65870       -2.63080        3.88025
H         -3.81215       -4.44070        1.44021
H         -3.78026       -4.59459        3.19293
H         -3.67346       -3.00337        2.44138
H          1.28816       -3.59886       -4.12806
H          0.86661       -2.04748       -3.43258
H          1.84205       -3.19101       -2.50606
H          0.78522       -5.48155       -1.85278
H         -0.91264       -5.78421       -2.19505
H          0.23241       -5.64991       -3.51996
H         -1.60236       -2.34367       -3.61606
H         -1.27567       -3.81226       -4.53643
H         -2.37753       -3.85401       -3.16245
H         -3.16101       -5.47791       -1.95652
H         -3.75313       -5.71928       -0.31241
H         -3.47676       -4.06661       -0.91801
C          5.73269        0.30596       -2.80927
C          4.65407       -2.21875        1.51369
C          4.95046       -2.56400       -0.94761
C          6.49181       -1.03920        0.34253
C          3.23632        4.40624       -0.98612
C          5.52021        3.51927       -1.36148
C          3.72814        3.16406       -3.10199
H          4.58694       -1.49084        2.32185
H          3.69876       -2.73589        1.43770
H          5.39870       -2.96321        1.79462
H          5.61665       -3.40612       -0.76198
H          3.93535       -2.95021       -1.03527
H          5.22113       -2.12551       -1.90517
H          6.55569       -0.27301        1.11443
H          7.15459       -1.85800        0.62143
H          6.86957       -0.61177       -0.58274
H          3.61823        5.35870       -1.35298
H          2.18063        4.36347       -1.24977
H          3.31991        4.40823        0.10035
H          5.79803        4.49070       -1.76969
H          5.74784        3.52112       -0.29606
H          6.15087        2.77152       -1.83564
H          2.66810        2.98023       -3.27596
H          4.28468        2.36241       -3.58137
H          3.99447        4.09966       -3.59294
H          4.72314       -0.00612       -3.07999
H          6.07476        1.07241       -3.50455
H          6.40840       -0.54597       -2.88265
