100
-131.98098626
C         -1.51384        3.86412       -1.47484
C         -2.29943        2.62782       -1.53840
C         -0.13433        3.52086       -1.48978
C          0.00839        2.04203       -1.58645
C          1.15458        1.41981       -2.31056
C         -1.39795        1.51210       -1.58514
C         -1.85136        0.11948       -1.99276
C         -0.94572       -0.59134       -2.97742
Cl         0.93744       -0.47155        2.81329
Cl        -1.86115       -1.81591        2.25240
C          3.22872        0.34101       -3.85210
C          2.49781        1.40805       -4.33649
C          2.94007       -0.17848       -2.59843
C          1.48661        1.94353       -3.57909
C          1.91426        0.33025       -1.83747
H         -3.38365        2.57144       -1.64504
H          0.69274        4.23190       -1.55582
H         -0.01397       -0.88936       -2.49680
H         -1.40801       -1.49768       -3.37519
H         -0.69677        0.05238       -3.82446
H          4.03171       -0.07553       -4.43797
H          2.72382        1.82071       -5.30641
H          3.55204       -0.97624       -2.21168
H          0.91221        2.77168       -3.95720
H         -1.92057        4.87862       -1.48098
P          1.77142       -0.30747       -0.15316
H         -2.84787        0.22473       -2.44268
P         -2.14732       -0.93846       -0.51245
H         -3.48305       -2.95419       -0.45226
C         -1.66835       -3.64655       -1.35930
C         -2.73605       -2.57431       -1.14664
C         -1.26976       -4.29732       -0.03185
H         -3.34940        0.93056        0.34708
C         -4.95489       -0.41039       -0.22691
C         -3.56085       -0.13762        0.37394
H         -4.80707       -0.75119       -1.26736
C         -5.69514       -1.50770        0.54583
H          3.60834       -1.84631       -0.38433
H          2.55320        0.76055        1.87384
C          3.52461        3.26740        1.21539
C          2.69172        2.29411        0.36175
C          2.87168        0.84378        0.82933
C          4.35960        0.46248        0.74990
C          5.22845        1.42389        1.58760
C          5.01621        2.88864        1.15956
H          3.17634        3.22723        2.25492
H          3.36806        4.30570        0.89087
H          3.01778        2.36607       -0.68324
H          1.63183        2.56820        0.35053
H          4.51683       -0.57329        1.07451
H          4.67628        0.49553       -0.29938
H          4.96704        1.31504        2.64760
H          6.29002        1.14780        1.51818
H          5.38767        3.02547        0.13614
H          5.61471        3.56835        1.78258
C          2.64199       -4.33035       -1.02858
C          1.90457       -2.97610       -1.02170
C          2.57136       -1.98978       -0.06029
C          2.60054       -2.57814        1.35869
C          3.36050       -3.91842        1.37915
C          2.72877       -4.92130        0.39342
H          3.65451       -4.18915       -1.42641
H          2.15199       -5.03475       -1.71533
H          0.87712       -3.12486       -0.68218
H          1.82582       -2.55254       -2.03197
H          3.02457       -1.86105        2.07349
H          1.57147       -2.74536        1.69665
H          4.40787       -3.74586        1.10216
H          3.38972       -4.33370        2.39623
H          1.72272       -5.18485        0.74176
H          3.29134       -5.86562        0.38710
H         -0.78866       -3.14950       -1.80113
C         -2.14997       -4.71177       -2.34913
H         -3.54117       -0.43672        1.42198
C         -5.79952        0.86755       -0.26599
H         -3.26092       -2.36758       -2.08131
H         -0.90873       -3.56586        0.69033
H         -0.49337       -5.05035       -0.17234
H         -2.12677       -4.79694        0.42058
H         -3.03730       -5.21731       -1.96680
H         -2.41046       -4.27490       -3.31458
H         -1.38592       -5.47172       -2.52071
H         -5.11350       -2.42523        0.62352
H         -5.90855       -1.17778        1.56309
H         -6.64864       -1.75383        0.07589
H         -5.94475        1.26149        0.74044
H         -5.32334        1.64886       -0.85912
H         -6.78655        0.68103       -0.69203
Fe        -1.04016        2.66411        0.09345
C         -2.47900        3.03305        1.55647
C         -1.63499        4.19666        1.36109
C         -0.25896        3.81234        1.61440
C         -0.25249        2.40438        1.95808
C         -1.61711        1.92267        1.91130
H         -3.56887        3.01097        1.48747
H         -1.98220        5.20373        1.11906
H          0.60718        4.47811        1.59924
H          0.60360        1.81847        2.29327
H         -1.93148        0.91867        2.20370
Pd        -0.26858       -0.88031        0.93303
