87
-129.18108494
P         -1.50810       -0.26499       -0.42635
P          1.69623        0.28228        0.24957
C         -1.07206        0.97644       -1.64930
C          1.50495       -0.81979       -1.17628
C          0.02310        0.73461       -2.46805
C          0.37761        1.69850       -3.43293
C         -0.39111        2.84545       -3.54946
C         -1.48123        3.06088       -2.73126
C         -1.81936        2.12121       -1.77736
C          2.11446       -2.04146       -1.00930
C          2.01856       -3.01201       -1.98774
C          1.29344       -2.75565       -3.13043
C          0.65320       -1.54190       -3.31258
C          0.76596       -0.54435       -2.32470
Cl         0.97315       -0.15060        3.35564
Cl        -1.70289       -1.86114        2.41130
H         -2.06399        3.96179       -2.83172
H         -2.67026        2.27747       -1.13558
H          2.66342       -2.23682       -0.09995
H          2.49980       -3.96667       -1.85237
H         -0.12046        3.58056       -4.28826
H          1.20360       -3.51243       -3.89125
C         -2.44631       -4.17780       -2.53789
C         -1.64162       -4.19732       -1.40692
C         -1.38606       -2.99769       -0.75465
C         -1.89655       -1.81662       -1.23990
C         -2.68898       -1.80415       -2.36372
C         -2.96927       -2.99157       -3.01420
H         -2.66183       -5.10356       -3.04359
C         -1.09046       -5.47392       -0.87742
H         -0.78557       -2.99239        0.13893
H         -3.07579       -0.86596       -2.72980
H         -3.59023       -2.98944       -3.89497
C         -5.16194        1.11132        1.92738
C         -5.22457       -0.03791        1.16514
C         -4.11768       -0.44889        0.44735
C         -2.96043        0.29288        0.49037
C         -2.89601        1.43742        1.25066
C         -3.99534        1.86122        1.98697
H         -6.02277        1.43343        2.48815
H         -6.13284       -0.61710        1.13341
H         -4.14924       -1.35148       -0.14062
H         -1.98586        2.01062        1.27168
C         -3.92236        3.10329        2.80336
C          6.07478       -0.01901        1.47791
C          5.72710        0.14779        0.15197
C          4.39418        0.23250       -0.20639
C          3.42002        0.15006        0.76210
C          3.76792       -0.01384        2.08131
C          5.09969       -0.10969        2.46105
H          7.11194       -0.07919        1.76088
H          6.49294        0.21317       -0.60344
H          4.10759        0.35679       -1.23896
H          2.99475       -0.06951        2.82592
C          5.46994       -0.26357        3.89446
C          0.78984        4.70831       -0.26069
C          1.64806        4.08205       -1.14265
C          1.93303        2.73825       -0.98980
C          1.34743        2.03136        0.03337
C          0.52447        2.66203        0.93829
C          0.22741        4.01250        0.80023
H          0.55675        5.75224       -0.38395
H          2.08858        4.63683       -1.95475
H          2.59806        2.23310       -1.67124
H          0.14863        2.11129        1.78390
C         -0.68908        4.69531        1.75262
Pd        -0.14930       -0.55649        1.46473
C          1.56147        1.51624       -4.31724
C         -0.15435       -1.33099       -4.54663
H          1.25280        1.30455       -5.34171
H          2.17730        2.41668       -4.33235
H          2.19121        0.69319       -3.97737
H          0.48927       -1.12076       -5.40163
H         -0.74354       -2.21863       -4.78125
H         -0.84970       -0.49877       -4.43322
H         -0.10964       -5.31848       -0.42544
H         -1.74926       -5.89337       -0.11587
H         -0.97590       -6.21403       -1.67064
H         -2.99060        3.14245        3.36920
H         -3.97229        3.98877        2.16827
H         -4.74444        3.15686        3.51840
H          5.62561        0.71031        4.36057
H          4.68545       -0.78012        4.44946
H          6.38878       -0.84133        4.00416
H         -1.69073        4.78173        1.32958
H         -0.76343        4.14535        2.69168
H         -0.33413        5.70022        1.98543
