111
-148.55558963
P         -2.57076        1.98002        0.82415
P          0.16015        0.43937        0.41596
C         -1.45191        1.75549        2.23071
C         -0.24406        1.12054        2.03914
C         -3.44391        3.61069        0.88213
C         -2.88293        4.57122       -0.14372
C         -1.80645        2.19832        3.48889
H         -2.76124        2.67573        3.63668
C         -0.94196        2.01057        4.55355
H         -1.21734        2.35632        5.53653
C          0.27021        1.37673        4.35891
H          0.94139        1.22675        5.18849
C          0.61768        0.92502        3.09855
H          1.55149        0.41036        2.93429
Pd        -1.35129        1.43598       -1.05064
Cl        -3.06603        2.06980       -2.34334
Cl         0.03251        0.77474       -2.69524
C         -4.91659        3.21879        0.65772
C         -4.01870        0.82800        0.83647
H         -2.99179        4.16855       -1.15182
H         -3.40062        5.53288       -0.11559
H         -1.81849        4.75304        0.02300
H         -5.14281        3.30038       -0.41440
H         -5.58548        3.93670        1.15632
H         -4.09749        0.42826       -0.18354
C         -5.20267        1.76628        1.13572
C         -3.82767       -0.29009        1.83777
H         -3.30376        4.00497        1.89654
H         -5.38860        1.76679        2.21859
H         -6.12479        1.37663        0.67821
H         -4.69412       -0.95492        1.86501
H         -2.94867       -0.89044        1.59456
H         -3.68330        0.11011        2.84303
C         -1.20523       -3.91022        0.25875
C         -0.96476       -3.29220        1.51482
C         -0.51652       -1.98171        1.52496
C         -0.37917       -1.26997        0.36185
C         -0.72625       -1.82609       -0.84063
C         -1.18689       -3.12742       -0.92595
O         -1.38175       -5.31541        0.17793
C         -1.18589       -3.98788        2.86886
H         -0.26825       -1.49899        2.45412
H         -0.63061       -1.22299       -1.72665
C         -1.68164       -3.62127       -2.29560
C          4.57668        0.81615       -0.64595
C          3.96942        1.79439        0.18205
C          2.62969        1.64547        0.50228
C          1.89302        0.60515       -0.00215
C          2.45232       -0.28731       -0.87827
C          3.77910       -0.18261       -1.26028
O          5.98441        0.82052       -0.83562
C          4.75337        2.98363        0.75896
H          2.14079        2.34005        1.16296
H          1.82861       -1.07050       -1.27225
C          4.32387       -1.14405       -2.32852
C         -1.96531       -3.04572        3.81324
C         -2.01659       -5.27616        2.73693
C          0.17677       -4.31830        3.49949
C         -0.47857       -3.82489       -3.23105
C         -2.48125       -4.93132       -2.19256
C         -2.62515       -2.56124       -2.90772
C         -0.15921       -6.01054       -0.00228
H         -2.91472       -2.75314        3.36628
H         -2.18023       -3.53827        4.76121
H         -1.40492       -2.14006        4.03898
H         -2.24226       -5.70016        3.71513
H         -2.95838       -5.07549        2.22736
H         -1.48307       -6.03237        2.16594
H          0.76857       -3.41481        3.64336
H          0.05103       -4.79544        4.47108
H          0.74932       -4.99309        2.86582
H          0.06927       -2.89329       -3.36786
H          0.21311       -4.56209       -2.82730
H         -0.80258       -4.16931       -4.21273
H         -1.85122       -5.75235       -1.85874
H         -3.29905       -4.82712       -1.48035
H         -2.90353       -5.21102       -3.15743
H         -3.44568       -2.33766       -2.22650
H         -2.10422       -1.62964       -3.12227
H         -3.05287       -2.91633       -3.84480
H          0.33060       -5.67484       -0.91515
H          0.50409       -5.82389        0.84088
H         -0.36036       -7.07969       -0.07273
C          6.69813        0.00790        0.08760
C          5.39541        2.56916        2.09164
C          5.83590        3.46169       -0.22584
C          3.81707        4.18555        1.01802
C          3.20374       -1.54647       -3.31581
C          5.43421       -0.47624       -3.15979
C          4.85776       -2.41431       -1.64998
H          5.94997        3.39720        2.53240
H          4.63361        2.25493        2.80483
H          6.08379        1.73864        1.95589
H          6.58601        2.69291       -0.39440
H          5.39364        3.71405       -1.18899
H          6.34914        4.34469        0.15411
H          3.11616        3.98313        1.82661
H          4.38997        5.06691        1.30549
H          3.24812        4.43401        0.12248
H          2.70286       -0.66440       -3.71411
H          3.61027       -2.10952       -4.15555
H          2.45626       -2.17873       -2.83949
H          5.07178        0.44689       -3.61092
H          6.29683       -0.23016       -2.54576
H          5.77515       -1.13371       -3.95911
H          5.66358       -2.18339       -0.95751
H          5.23956       -3.11954       -2.38779
H          4.06808       -2.91036       -1.08600
H          7.24643       -0.76445       -0.45139
H          7.41869        0.61967        0.63019
H          6.01123       -0.45871        0.79478
