111
-148.55823897
P         -2.59508        1.89529        1.07102
P          0.16415        0.46403        0.46778
C         -1.47629        1.48554        2.43751
C         -0.24903        0.92104        2.16403
C         -3.49372        3.48344        1.38391
C         -2.91737        4.62298        0.57240
C         -1.84480        1.73257        3.74467
H         -2.81393        2.15404        3.95527
C         -0.97549        1.42182        4.77609
H         -1.26251        1.61433        5.79698
C          0.25776        0.86404        4.49909
H          0.93386        0.62024        5.30200
C          0.61974        0.60830        3.18897
H          1.57136        0.15669        2.95841
Pd        -1.35268        1.61882       -0.85531
Cl        -3.05227        2.57874       -1.96097
Cl        -0.06054        1.25565       -2.65333
C         -4.95137        3.11981        1.04637
C         -4.02691        0.73561        0.89308
H         -1.86126        4.78028        0.80394
H         -2.99033        4.41555       -0.49575
H         -3.44989        5.55771        0.76267
H         -5.13901        3.36129       -0.00899
H         -5.64769        3.74823        1.62236
H         -4.07704        0.47717       -0.17327
C         -5.23257        1.60895        1.28878
C         -3.84087       -0.50565        1.73803
H         -3.39425        3.69042        2.45691
H         -5.45442        1.44424        2.35215
H         -6.13385        1.28553        0.74620
H         -2.94882       -1.05789        1.43585
H         -3.72302       -0.24369        2.79114
H         -4.69817       -1.17775        1.65565
C         -1.20017       -3.82341       -0.26862
C         -0.95389       -3.38153        1.05854
C         -0.51591       -2.08122        1.24540
C         -0.38734       -1.21811        0.18912
C         -0.72727       -1.60853       -1.07826
C         -1.18810       -2.88713       -1.33662
O         -1.37688       -5.20476       -0.53851
C         -1.14827       -4.25946        2.30624
H         -0.26370       -1.72792        2.23013
H         -0.62254       -0.89262       -1.87537
C         -1.68921       -3.19180       -2.75822
C          4.60620        0.67565       -0.50396
C          4.09545       -0.40033        0.26636
C          2.73499       -0.43295        0.52396
C          1.91384        0.58857        0.12302
C          2.41996        1.68404       -0.52509
C          3.76861        1.77347       -0.82882
O          5.94318        0.63591       -0.98185
C          4.97995       -1.54016        0.79598
H          2.29102       -1.27364        1.02929
H          1.73579        2.46124       -0.81847
C          4.28922        3.02603       -1.55085
C          0.22793       -4.66020        2.86309
C         -1.91811       -3.46421        3.38427
C         -1.97236       -5.52453        2.01047
C         -2.61966       -2.04938       -3.22552
C         -0.48959       -3.28667       -3.71510
C         -2.50600       -4.49362       -2.82408
C         -0.15656       -5.86748       -0.82511
H          0.79534       -5.23390        2.13261
H          0.81483       -3.77931        3.12186
H          0.12289       -5.26919        3.76060
H         -2.11651       -4.08628        4.25668
H         -1.35874       -2.59547        3.72719
H         -2.87542       -3.11818        2.99617
H         -2.92398       -5.26372        1.54861
H         -1.44381       -6.18993        1.33205
H         -2.17860       -6.08169        2.92404
H         -2.08638       -1.10510       -3.32155
H         -3.05461       -2.27565       -4.19855
H         -3.43540       -1.90390       -2.51788
H          0.08250       -2.35938       -3.71501
H          0.18263       -4.09184       -3.42478
H         -0.82010       -3.47658       -4.73590
H         -2.92964       -4.64179       -3.81711
H         -1.88760       -5.35894       -2.59767
H         -3.32409       -4.47050       -2.10498
H          0.32619       -5.40675       -1.68544
H          0.51422       -5.80156        0.03009
H         -0.35953       -6.91603       -1.04389
C          6.08927       -0.00827       -2.24143
C          5.02324       -2.67407       -0.23956
C          6.40448       -1.04261        1.10119
C          4.40828       -2.10276        2.11796
C          5.74325        3.33536       -1.15093
C          4.18946        2.81128       -3.06891
C          3.44586        4.26534       -1.17415
H          4.02091       -3.05389       -0.43665
H          5.43792       -2.33051       -1.18413
H          5.63493       -3.50332        0.11491
H          6.90758       -0.70039        0.20046
H          6.37761       -0.21101        1.80455
H          7.01190       -1.83572        1.53651
H          5.09792       -2.81934        2.56353
H          4.24377       -1.30347        2.84016
H          3.46471       -2.62349        1.96137
H          5.82851        3.44676       -0.07053
H          6.41765        2.54008       -1.45814
H          6.08957        4.25814       -1.61572
H          3.15815        2.61641       -3.36238
H          4.53531        3.69049       -3.61178
H          4.78912        1.96214       -3.38739
H          3.38526        4.37894       -0.09211
H          2.43380        4.19988       -1.57079
H          3.88979        5.17336       -1.58160
H          6.52757        0.68587       -2.95831
H          6.75989       -0.86150       -2.14130
H          5.12029       -0.34783       -2.60954
