171
-217.84277393
P         -1.61828        0.35644       -0.38533
P          1.57562       -0.41013       -0.33399
C         -0.90693        1.25628       -1.76630
C          0.88157       -1.43933       -1.63097
C         -0.12012        0.59094       -2.69969
C          0.49176        1.33913       -3.72424
C          0.26631        2.70377       -3.79383
C         -0.54111        3.33922       -2.87462
C         -1.12220        2.60976       -1.85636
C          1.11596       -2.79227       -1.58502
C          0.54022       -3.63008       -2.51906
C         -0.28728       -3.10295       -3.48742
C         -0.53698       -1.74180       -3.55053
C          0.07757       -0.88316       -2.61916
Cl         1.55472        0.40735        2.83237
Cl        -1.66811       -0.39081        2.80022
C         -1.43596       -1.21124       -4.61077
C          1.37093        0.69370       -4.73774
H         -0.71566        4.40023       -2.94789
H         -1.75198        3.09914       -1.13163
H          1.75428       -3.19694       -0.81678
H          0.73181       -4.69018       -2.48540
H          0.73311        3.26990       -4.58223
H         -0.75113       -3.75313       -4.20993
C         -4.01103       -3.26749       -1.64183
C         -2.94769       -3.43549       -0.76323
C         -2.22317       -2.30858       -0.39632
C         -2.54810       -1.07872       -0.91058
C         -3.59592       -0.92925       -1.78562
C         -4.35834       -2.02722       -2.16547
H         -4.58933       -4.13129       -1.91018
H         -1.40191       -2.37786        0.29590
H         -3.82900        0.05425       -2.15884
C         -4.15157        2.94322        2.35346
C         -2.82465        3.29356        2.13751
C         -2.08628        2.51644        1.25505
C         -2.64947        1.42643        0.63789
C         -3.95690        1.08372        0.87992
C         -4.73852        1.84234        1.74247
H         -4.74638        3.52968        3.02793
H         -1.05196        2.74565        1.06433
H         -4.35486        0.20244        0.40947
C          4.40003       -2.74355        2.34395
C          4.90921       -1.71489        1.56093
C          4.02630       -1.02753        0.73842
C          2.69827       -1.37152        0.69523
C          2.21385       -2.39512        1.47101
C          3.05573       -3.09657        2.32331
H          5.07261       -3.27131        2.99349
H          4.36598       -0.20545        0.13430
H          1.16505       -2.63570        1.42583
C          3.85681        3.23830       -1.72062
C          2.89919        3.38267       -0.72405
C          2.18702        2.25410       -0.34099
C          2.42830        1.04275       -0.93869
C          3.38059        0.91359       -1.91995
C          4.12003        2.01742       -2.32986
H          4.43203        4.09302       -2.02273
H          1.45580        2.31224        0.44730
H          3.55262       -0.06028       -2.34584
Pd        -0.03836       -0.00511        1.30816
C         -1.35656       -4.80772        0.66715
C         -2.63199       -4.82645       -0.19700
C         -2.41778       -5.81860       -1.35544
C         -3.80987       -5.29303        0.67663
H         -1.12577       -5.80613        1.03829
H         -0.50133       -4.46183        0.08783
H         -1.47611       -4.15530        1.53180
H         -3.31762       -5.92684       -1.95944
H         -1.61544       -5.47903       -2.00924
H         -2.15077       -6.80577       -0.97862
H         -3.61224       -6.27465        1.10691
H         -3.98203       -4.59351        1.49449
H         -4.72901       -5.36058        0.09556
C         -6.27067       -3.16630       -3.40551
C         -5.57202       -1.83004       -3.08741
C         -5.12279       -1.19221       -4.41433
C         -6.58544       -0.90438       -2.39096
H         -5.58833       -3.85717       -3.90050
H         -6.64598       -3.63943       -2.49829
H         -7.12056       -3.00928       -4.06965
H         -4.62175       -0.23931       -4.24882
H         -4.43551       -1.85020       -4.94390
H         -5.97687       -1.00974       -5.06637
H         -7.46888       -0.75454       -3.01135
H         -6.90837       -1.33436       -1.44315
H         -6.15044        0.07373       -2.18872
C         -2.03514        5.63895        1.79172
C         -2.17159        4.50387        2.82015
C         -0.77886        4.11314        3.35534
C         -3.01370        5.00645        4.00936
H         -1.45672        5.31496        0.92813
H         -3.01499        5.95397        1.43333
H         -1.53832        6.50564        2.22738
H         -0.85083        3.25901        4.02837
H         -0.09953        3.84614        2.54836
H         -0.32576        4.93875        3.90372
H         -2.50415        5.81845        4.52802
H         -3.97927        5.38793        3.67868
H         -3.18559        4.20677        4.72968
C         -6.66302        0.25033        1.26005
C         -6.19176        1.47231        2.07112
C         -7.11266        2.66043        1.73656
C         -6.29816        1.13488        3.56937
H         -6.05831       -0.62857        1.48295
H         -7.69897        0.00527        1.49387
H         -6.60372        0.45095        0.19133
H         -8.15528        2.41345        1.93608
H         -6.86052        3.53877        2.32935
H         -7.02523        2.93002        0.68417
H         -6.02114        1.98818        4.18734
H         -7.31531        0.84641        3.83385
H         -5.63455        0.30878        3.82428
C          6.75969       -0.22337        0.65220
C          6.39682       -1.34539        1.64564
C          7.25251       -2.58179        1.31323
C          6.71420       -0.85926        3.07115
H          6.54301       -0.52468       -0.37253
H          6.20525        0.68951        0.86939
H          7.82144        0.01605        0.70906
H          7.01721       -2.95544        0.31682
H          8.31473       -2.33924        1.34053
H          7.07816       -3.38900        2.02351
H          6.10093        0.00448        3.32741
H          6.51747       -1.63829        3.80685
H          7.76108       -0.57007        3.16154
C          1.25342       -3.69157        3.96840
C          2.47789       -4.22042        3.19448
C          3.50850       -4.73609        4.21722
C          2.05499       -5.38802        2.28673
H          0.45200       -3.39115        3.29514
H          0.85387       -4.45505        4.63548
H          1.52473       -2.82451        4.57020
H          4.37080       -5.17899        3.71943
H          3.85683       -3.92866        4.86109
H          3.06953       -5.50334        4.85491
H          1.31841       -5.06475        1.55317
H          2.91264       -5.78415        1.74334
H          1.61795       -6.19906        2.86894
C          2.87080        4.54887        1.49362
C          2.62789        4.71789       -0.01828
C          1.16756        5.12952       -0.26874
C          3.54764        5.83946       -0.53747
H          2.68271        5.48082        2.02636
H          2.22103        3.78517        1.91817
H          3.90125        4.25101        1.68604
H          0.48034        4.36044        0.07898
H          0.92800        6.05816        0.24887
H          0.98856        5.27958       -1.33286
H          3.34162        6.77730       -0.02168
H          4.59664        5.59495       -0.37129
H          3.39591        6.00962       -1.60323
C          5.34243        0.49439       -3.96298
C          5.24677        1.91293       -3.36804
C          6.58737        2.24585       -2.68716
C          4.99137        2.90985       -4.51432
H          4.41093        0.20711       -4.44918
H          6.13470        0.44102       -4.70956
H          5.56937       -0.24056       -3.19088
H          6.58616        3.25905       -2.28677
H          6.78075        1.56142       -1.86181
H          7.41421        2.16605       -3.39267
H          5.76507        2.83089       -5.27786
H          4.03015        2.71915       -4.98925
H          4.98645        3.93766       -4.15382
H         -0.88142       -1.00362       -5.52653
H          2.27269        1.28417       -4.89861
H         -1.92294       -0.28872       -4.29142
H         -2.21641       -1.93324       -4.85212
H          0.85890        0.60164       -5.69648
H          1.68234       -0.30287       -4.42208
