59
-75.80830196
Cl         1.60011        0.64251        2.29750
P          1.63883       -0.11739       -0.85855
P         -1.65823       -0.04570       -0.76905
C          0.58102        0.21756       -2.33681
H          0.34892        1.28451       -2.37161
H          1.16016       -0.02005       -3.23441
C         -0.67958       -0.59601       -2.23770
H         -0.44399       -1.65655       -2.11672
H         -1.30951       -0.49698       -3.12695
C          2.62636       -1.65280       -1.19577
H          2.40257       -1.89497       -2.24345
C          3.02525        1.09317       -0.66295
H          3.16862        1.21296        0.41793
C         -3.08610       -1.16855       -0.41774
H         -3.30181       -1.02627        0.64881
C         -2.64973        1.44889       -1.23245
H         -2.05718        2.04596       -1.93648
C          4.09030       -1.18797       -1.08013
H          4.48384       -1.46074       -0.09359
H          4.72067       -1.72920       -1.80180
C          4.22256        0.34640       -1.27512
H          4.27315        0.57891       -2.34795
H          5.16587        0.71902       -0.84708
C         -4.22814       -0.58713       -1.28152
H         -4.48626       -1.30963       -2.06860
H         -5.13960       -0.49169       -0.67305
C         -3.86470        0.79023       -1.91990
H         -4.72778        1.47185       -1.88596
H         -3.64537        0.65216       -2.98993
C          2.24621       -2.83150       -0.30115
H          2.81656       -3.71625       -0.61671
H          1.19577       -3.08810       -0.48993
C          2.73822        2.44726       -1.29955
H          3.65888        3.04736       -1.29550
H          2.49749        2.29853       -2.36009
C         -2.77245       -2.63461       -0.68571
H         -3.70077       -3.21943       -0.62201
H         -2.43558       -2.74293       -1.72463
C         -3.04135        2.28705       -0.01698
H         -3.85671        2.96653       -0.30235
H         -3.47391        1.62162        0.74175
C          2.45591       -2.59810        1.18855
H          3.51104       -2.48342        1.43980
H          2.07399       -3.42771        1.78814
H          1.94949       -1.69523        1.52728
C          1.62161        3.20493       -0.59943
H          1.42443        4.17275       -1.06595
H          1.86540        3.38712        0.44895
H          0.69103        2.63757       -0.61498
C         -1.73802       -3.19800        0.27563
H         -1.49097       -4.23864        0.05385
H         -2.09336       -3.15526        1.30696
H         -0.81302       -2.62298        0.23787
C         -1.89655        3.09129        0.57839
H         -2.22438        3.70592        1.41983
H         -1.10167        2.44433        0.94759
H         -1.45631        3.76023       -0.16329
Cl        -1.56047       -0.07939        2.37725
Pd         0.03517        0.05570        0.79946
