111
-148.54915115
P         -1.71398        2.76382        0.58978
P         -0.59330       -0.19733        0.40505
C         -1.67816        1.71377        2.07511
C         -1.27227        0.39907        1.96699
C         -0.48111        4.13448        0.68413
C          0.51510        4.03013       -0.45112
C         -2.01064        2.22425        3.31394
H         -2.26709        3.26551        3.40977
C         -1.97332        1.40891        4.43184
H         -2.23801        1.80880        5.39709
C         -1.58874        0.08729        4.31475
H         -1.55347       -0.54564        5.18616
C         -1.22370       -0.41552        3.07916
H         -0.87747       -1.43196        2.97589
Pd        -1.43325        1.28089       -1.16579
Cl        -2.56211        2.68038       -2.49864
Cl        -0.92745       -0.31813       -2.66814
C         -1.36100        5.40185        0.63519
C         -3.27568        3.72680        0.31150
H          0.00404        4.07394       -1.41512
H          1.24267        4.84478       -0.42273
H          1.06609        3.08762       -0.41361
H         -0.82275        6.20074        0.10455
H         -1.52465        5.78292        1.65403
H         -3.76814        3.26553       -0.55499
C         -2.73681        5.12970       -0.03800
C         -4.21400        3.71409        1.49950
H          0.02416        4.03870        1.65424
H         -3.47234        5.89180        0.25876
H         -2.63208        5.22641       -1.12886
H         -5.16038        4.20687        1.26503
H         -4.43610        2.69414        1.82077
H         -3.77707        4.24684        2.34453
C         -0.70108       -4.70886       -0.17562
C          0.37269       -4.10789        0.52987
C          0.36979       -2.73073        0.67660
C         -0.67691       -1.97294        0.22014
C         -1.76805       -2.55857       -0.36488
C         -1.82744       -3.93063       -0.54782
O         -0.63137       -6.07925       -0.54252
C          1.55151       -4.91426        1.09709
H          1.20092       -2.22359        1.13642
H         -2.56685       -1.92057       -0.70189
C         -3.08206       -4.54465       -1.18829
C          3.72237        1.24602        0.13352
C          3.00326        1.39791        1.34664
C          1.70555        0.91970        1.40489
C          1.10783        0.36430        0.30423
C          1.76294        0.30988       -0.89689
C          3.05646        0.78220       -1.02963
O          5.11318        1.53140        0.09485
C          3.62277        2.04677        2.59390
H          1.14095        0.97362        2.31856
H          1.22852       -0.08541       -1.74240
C          3.70588        0.78721       -2.42218
C          2.13002       -4.22316        2.35328
C          1.10591       -6.32355        1.52746
C          2.65946       -5.00745        0.03674
C         -4.33526       -3.70628       -0.84827
C         -2.91006       -4.56897       -2.71478
C         -3.33834       -5.96712       -0.65825
C         -0.01840       -6.31018       -1.80498
H          2.61734       -3.28066        2.10787
H          1.34496       -4.02445        3.08244
H          2.87884       -4.85426        2.83143
H          0.29136       -6.26462        2.24858
H          0.75766       -6.90682        0.67889
H          1.92791       -6.87094        1.98809
H          3.51567       -5.56568        0.41453
H          2.30430       -5.50485       -0.86252
H          3.00358       -4.01356       -0.24896
H         -4.30930       -2.72931       -1.32850
H         -5.24019       -4.20668       -1.19221
H         -4.42281       -3.55880        0.22782
H         -2.05190       -5.16983       -3.00557
H         -3.79234       -4.98428       -3.20103
H         -2.75396       -3.56158       -3.10007
H         -2.53263       -6.64400       -0.93088
H         -3.41770       -5.96303        0.42832
H         -4.26318       -6.37594       -1.06449
H          0.27828       -5.36528       -2.26204
H          0.85929       -6.94325       -1.67597
H         -0.71726       -6.82822       -2.46152
C          5.94266        0.40439        0.34757
C          4.59029        3.17758        2.20033
C          2.53091        2.67758        3.48763
C          4.36180        0.97577        3.41003
C          2.63627        1.00416       -3.51785
C          4.72193        1.93563       -2.55849
C          4.39364       -0.56435       -2.66655
H          4.98452        3.68104        3.08268
H          5.43618        2.79564        1.63380
H          4.08269        3.91945        1.58456
H          2.97913        3.23647        4.30878
H          1.91180        3.36664        2.91483
H          1.88499        1.92138        3.93148
H          5.16281        0.52259        2.83134
H          4.79933        1.40443        4.31130
H          3.67891        0.18136        3.71050
H          2.03861        1.89045       -3.30609
H          3.10300        1.14038       -4.49301
H          1.96449        0.15146       -3.60239
H          4.24845        2.89335       -2.34468
H          5.55385        1.81456       -1.86950
H          5.13282        1.97788       -3.56687
H          4.85736       -0.59399       -3.65219
H          3.67231       -1.37921       -2.60798
H          5.16629       -0.75363       -1.92509
H          6.60627        0.62192        1.18440
H          5.33517       -0.47068        0.58217
H          6.55705        0.19605       -0.52800
