111
-148.55484522
P         -2.50992        2.10217        0.86331
P          0.12036        0.38698        0.48869
C         -1.42868        1.79753        2.28492
C         -0.26650        1.07911        2.10798
C         -3.24071        3.80184        0.90457
C         -2.61006        4.69536       -0.14111
C         -1.76484        2.26524        3.53914
H         -2.68491        2.80945        3.67604
C         -0.92645        2.01899        4.61286
H         -1.18759        2.38393        5.59278
C          0.24222        1.30437        4.43107
H          0.89386        1.11150        5.26732
C          0.57148        0.82898        3.17437
H          1.47296        0.25759        3.01661
Pd        -1.33275        1.41594       -0.99590
Cl        -2.98156        2.18553       -2.30134
Cl         0.09208        0.83540       -2.63597
C         -4.74422        3.53554        0.70118
C         -4.05131        1.07912        0.88654
H         -2.76426        4.28903       -1.14180
H         -3.04230        5.69857       -0.12264
H         -1.53209        4.78657        0.01253
H         -4.97645        3.62899       -0.36865
H         -5.34299        4.31124        1.20230
H         -4.17214        0.68852       -0.13286
C         -5.14733        2.11608        1.19394
C         -3.94810       -0.05240        1.88611
H         -3.05511        4.19651        1.91162
H         -5.31827        2.13922        2.27905
H         -6.10514        1.80350        0.75082
H         -4.86687       -0.64254        1.91865
H         -3.12350       -0.72382        1.63703
H         -3.76484        0.33304        2.89078
C         -1.19918       -3.96386        0.19681
C         -1.13898       -3.33840        1.46903
C         -0.71650       -2.02104        1.53396
C         -0.43586       -1.31380        0.39477
C         -0.59990       -1.88135       -0.84075
C         -1.01399       -3.19364       -0.97930
O         -1.40934       -5.36538        0.10241
C         -1.49189       -4.07678        2.76982
H         -0.59302       -1.52850        2.48202
H         -0.39014       -1.27348       -1.70360
C         -1.22506       -3.76110       -2.39124
C          4.49115        0.81235       -0.72040
C          3.82302       -0.42722       -0.90228
C          2.49304       -0.51253       -0.52868
C          1.85186        0.54107        0.06787
C          2.52411        1.70115        0.35054
C          3.85970        1.85287        0.01273
O          5.75002        1.03598       -1.33477
C          4.48219       -1.68462       -1.49389
H          1.93382       -1.41210       -0.71811
H          1.98801        2.49819        0.83789
C          4.57600        3.13504        0.47028
C         -2.02863       -3.09066        3.83243
C         -2.59717       -5.12148        2.53083
C         -0.23143       -4.75634        3.32573
C         -1.67473       -2.64605       -3.36385
C          0.09706       -4.35313       -2.90277
C         -2.32823       -4.83451       -2.39898
C         -0.21147       -6.13195        0.10411
H         -1.25688       -2.40129        4.17148
H         -2.86024       -2.50864        3.43689
H         -2.38587       -3.62700        4.71125
H         -2.89326       -5.59944        3.46430
H         -3.47908       -4.65369        2.09441
H         -2.26435       -5.90326        1.85262
H         -0.44832       -5.28022        4.25630
H          0.17097       -5.47870        2.61971
H          0.54653       -4.01991        3.52595
H         -1.95345       -3.06472       -4.33047
H         -2.53839       -2.11167       -2.96896
H         -0.88022       -1.92414       -3.54651
H          0.87438       -3.59012       -2.93138
H          0.44607       -5.15593       -2.25778
H         -0.01837       -4.75510       -3.90898
H         -2.52028       -5.19187       -3.41035
H         -2.05053       -5.69382       -1.79386
H         -3.25809       -4.43130       -1.99925
H         -0.14274       -6.70608       -0.81969
H          0.65829       -5.47963        0.19264
H         -0.22739       -6.83232        0.93902
C          5.63536        1.57453       -2.64140
C          6.01786       -1.59393       -1.49189
C          4.10103       -2.91724       -0.64275
C          3.97839       -1.89528       -2.93139
C          6.10723        3.01695        0.37496
C          4.09722        4.32106       -0.38308
C          4.23797        3.40992        1.95264
H          6.46711       -2.52816       -1.82796
H          6.36699       -0.80473       -2.15350
H          6.38874       -1.37863       -0.49040
H          3.03510       -3.13334       -0.69442
H          4.62722       -3.80617       -0.98980
H          4.36335       -2.75851        0.40285
H          4.39446       -2.80630       -3.36075
H          2.89230       -1.97791       -2.95404
H          4.25959       -1.06337       -3.57376
H          6.45958        2.14087        0.91827
H          6.43240        2.92130       -0.65820
H          6.59594        3.89644        0.79355
H          4.57206        5.24809       -0.06281
H          4.33244        4.16994       -1.43474
H          3.01855        4.45023       -0.29993
H          4.49538        2.55053        2.57115
H          3.17971        3.62219        2.09491
H          4.79378        4.27026        2.32461
H          5.13914        2.54274       -2.60480
H          6.63072        1.69545       -3.06937
H          5.05082        0.90611       -3.27108
