72
-108.39084213
Cl        -2.06516       -0.22907        2.79803
Cl         0.99822       -0.76359        2.82757
P          1.18578       -0.97254       -0.31991
P         -2.20693        0.12002       -0.38522
C         -3.40044       -1.35359       -0.37809
C         -4.16388       -1.42025        0.94164
C         -4.39965       -1.24321       -1.53953
C         -3.09628        1.76793       -0.02476
C         -4.47785        1.78063       -0.67008
C         -1.44745        0.38326       -2.09067
C         -1.34416       -0.83133       -2.99771
C          1.13192        0.36790       -1.54346
C         -0.08312        1.04391       -2.00320
C          0.37459        2.18938       -2.79285
C          1.82026        2.13475       -2.91440
C          2.28952        0.98166       -2.17108
C         -2.55795       -2.61909       -0.50926
H         -3.48466       -1.55434        1.78180
H         -4.75188       -0.52196        1.11727
H         -5.27329       -0.65411       -1.26285
H         -4.76796       -2.22873       -1.82960
C         -3.22082        1.97988        1.47811
H         -4.92734        2.77187       -0.59145
H         -5.15583        1.08552       -0.17887
H         -2.13994        1.09109       -2.56064
H         -2.28833       -1.35122       -3.14514
H         -0.62574       -1.54124       -2.59804
H         -0.97603       -0.54570       -3.98506
H         -0.27796        2.87108       -3.34151
H          2.44271        2.81888       -3.49510
Pd        -0.51718       -0.44343        1.18638
H          3.32545        0.67071       -2.02168
C         -2.26781        2.90264       -0.62504
H         -4.42015        1.52882       -1.72930
H         -2.24100        1.98827        1.95421
H         -3.70591        2.93198        1.69895
H         -3.81141        1.19350        1.94545
H         -2.33666        2.92381       -1.71248
H         -2.61295        3.87275       -0.26314
H         -1.22081        2.79733       -0.35816
H         -4.85276       -2.26642        0.94280
H         -3.96267       -0.77462       -2.41859
H         -3.18986       -3.50887       -0.48860
H         -1.99351       -2.64345       -1.43815
H         -1.85232       -2.70206        0.31760
C          2.87311       -1.05197        0.32940
C          3.31872       -2.02454        1.18918
C          4.65793       -1.74678        1.46352
C          4.97631       -0.61487        0.75448
O          3.88997       -0.17840        0.05246
H          2.73351       -2.83897        1.58423
H          5.31330       -2.30986        2.10776
H          5.94293       -0.12653        0.74345
C          0.79036       -2.60816       -0.96288
C          0.53321       -3.66992       -0.13162
C          0.27194       -4.77287       -0.94607
C          0.38310       -4.33642       -2.24357
O          0.69926       -3.00795       -2.26834
H          0.52967       -3.64243        0.94674
H          0.03161       -5.77156       -0.61994
H          0.24272       -4.94356       -3.12928
Fe         1.25723        2.24533       -0.92815
C          2.90325        2.58220        0.22154
C          1.85229        1.99592        1.02769
C          0.70811        2.88028        0.98494
C          1.04033        4.00021        0.12300
C          2.40772        3.82867       -0.33418
H          3.89898        2.15800        0.07424
H          1.91930        1.07494        1.61043
H         -0.20231        2.76280        1.57432
H          0.39803        4.85792       -0.08947
H          2.96574        4.51638       -0.97383
