59
-75.80168715
Cl         1.70167       -0.01210        2.38155
P          1.60102       -0.08984       -0.88438
P         -1.57943       -0.13654       -0.76551
C          0.57618        0.25309       -2.38097
H          0.31709        1.31429       -2.40128
H          1.17083        0.04228       -3.27538
C         -0.65959       -0.59675       -2.29763
H         -0.39869       -1.65671       -2.23884
H         -1.32073       -0.46390       -3.15999
C          2.66186       -1.57450       -1.24500
H          2.64990       -1.63973       -2.34179
C          2.94184        1.15411       -0.55104
H          2.91722        1.33538        0.53062
C         -2.95979       -1.30494       -0.37737
H         -3.12611       -1.22476        0.70420
C         -2.58994        1.38145       -1.11490
H         -2.28682        1.72697       -2.11065
C          4.06168       -1.13030       -0.79087
H          4.21368       -1.41546        0.25743
H          4.83749       -1.66724       -1.35772
C          4.23178        0.40519       -0.93028
H          4.49151        0.65171       -1.96891
H          5.07604        0.76426       -0.32236
C         -4.13662       -0.67690       -1.14193
H         -4.11631       -1.03905       -2.17957
H         -5.09448       -1.02493       -0.72508
C         -4.04919        0.87412       -1.12517
H         -4.55785        1.24991       -0.22719
H         -4.60075        1.30564       -1.97352
C          2.17181       -2.89905       -0.65896
H          2.82255       -3.70648       -1.02242
H          1.18261       -3.12332       -1.07852
C          2.75289        2.46961       -1.29896
H          3.68597        3.04777       -1.24552
H          2.60890        2.25419       -2.36563
C         -2.65066       -2.74882       -0.74908
H         -3.56998       -3.34647       -0.67654
H         -2.36305       -2.79133       -1.80734
C         -2.33247        2.46571       -0.07527
H         -2.66894        2.10075        0.90425
H         -1.25161        2.61441        0.03706
C          2.11028       -2.95139        0.85965
H          3.09676       -2.84240        1.31180
H          1.69826       -3.89774        1.21805
H          1.48516       -2.15591        1.26207
C          1.60138        3.30160       -0.75929
H          1.47603        4.23743       -1.30866
H          1.75469        3.55414        0.29170
H          0.66046        2.75708       -0.82129
C         -1.56525       -3.35192        0.12749
H         -0.65851       -2.74815        0.09449
H         -1.30193       -4.36693       -0.17842
H         -1.87829       -3.39224        1.17258
C         -3.00874        3.78669       -0.41004
H         -2.81240        4.55020        0.34612
H         -2.65904        4.17569       -1.36826
H         -4.09139        3.67151       -0.48591
Cl        -1.56141        0.35942        2.37118
Pd         0.06684        0.09008        0.85094
