111
-148.55394300
P         -2.46722        2.17856        0.53936
P          0.10443        0.32432        0.45951
C         -1.38290        2.08773        1.98206
C         -0.27866        1.26428        1.95274
C         -2.73421        3.92297       -0.01021
C         -1.87999        4.25168       -1.21609
C         -1.66022        2.83594        3.10786
H         -2.51681        3.49047        3.11394
C         -0.83521        2.74377        4.21531
H         -1.05138        3.32500        5.09681
C          0.26375        1.90686        4.19107
H          0.90581        1.83316        5.05337
C          0.54382        1.16723        3.05586
H          1.40165        0.51543        3.02338
Pd        -1.54121        0.86243       -1.10356
Cl        -3.35105        1.14908       -2.38700
Cl        -0.36930       -0.41352       -2.53354
C         -4.25069        3.96877       -0.27052
C         -4.21820        1.67622        0.88423
H         -2.12420        3.59535       -2.05360
H         -2.03656        5.28079       -1.54776
H         -0.81701        4.12306       -0.99724
H         -4.43472        3.71326       -1.32331
H         -4.63091        4.99400       -0.14405
H         -4.46321        0.92644        0.12029
C         -5.01704        2.97274        0.64428
C         -4.38396        1.10308        2.27736
H         -2.46995        4.56147        0.84283
H         -5.21627        3.44961        1.61363
H         -6.00698        2.73874        0.22454
H         -3.69376        0.27710        2.45759
H         -4.18217        1.86056        3.03590
H         -5.40101        0.73955        2.44154
C         -0.90752       -4.08980        0.94580
C         -1.91267       -3.10064        1.10255
C         -1.54234       -1.76948        0.99667
C         -0.26339       -1.41847        0.64751
C          0.67029       -2.37610        0.34709
C          0.37225       -3.72344        0.45651
O         -1.16019       -5.43448        1.32557
C         -3.38569       -3.44408        1.37347
H         -2.25603       -0.98302        1.17097
H          1.64141       -2.05686        0.01498
C          1.43418       -4.76373        0.06885
C          4.33380        1.23210       -0.99277
C          3.21319        1.68028       -1.73679
C          1.94791        1.40968       -1.24351
C          1.77157        0.65275       -0.11488
C          2.85116        0.13064        0.55060
C          4.14498        0.37200        0.11865
O          5.64030        1.66812       -1.34018
C          3.34642        2.45398       -3.05821
H          1.07413        1.78559       -1.74653
H          2.67028       -0.47279        1.42259
C          5.32173       -0.27021        0.87101
C         -4.30832       -2.46157        0.61734
C         -3.74022       -4.85598        0.87171
C         -3.66094       -3.33743        2.88060
C          2.34049       -4.22087       -1.05925
C          2.30296       -5.08351        1.29439
C          0.77919       -6.05156       -0.46321
C         -0.88835       -5.69782        2.69606
H         -5.35203       -2.76168        0.70687
H         -4.23140       -1.45065        1.01002
H         -4.05646       -2.43324       -0.44250
H         -3.19392       -5.62069        1.41774
H         -4.80353       -5.06042        0.99445
H         -3.49401       -4.96024       -0.18446
H         -4.70221       -3.56723        3.10500
H         -3.03394       -4.02724        3.44225
H         -3.45200       -2.33070        3.24149
H          2.96203       -3.39532       -0.71759
H          3.01243       -4.99749       -1.42377
H          1.74275       -3.87249       -1.90114
H          2.77908       -4.18088        1.67643
H          1.70565       -5.50937        2.09767
H          3.08601       -5.79818        1.04237
H          0.12008       -5.82844       -1.30151
H          1.53166       -6.76301       -0.80241
H          0.18689       -6.54118        0.30614
H         -1.81613       -5.92703        3.21965
H         -0.22518       -6.55936        2.77530
H         -0.41622       -4.83214        3.16232
C          6.02884        2.88880       -0.72272
C          4.61113        2.02770       -3.82556
C          2.14135        2.16154       -3.98239
C          3.38524        3.96131       -2.76540
C          6.48322       -0.58768       -0.08849
C          5.79520        0.68103        1.98029
C          4.89785       -1.60755        1.51939
H          4.60916        0.95220       -3.99960
H          4.67076        2.52785       -4.79185
H          5.51372        2.27368       -3.27197
H          2.29727        2.59314       -4.97073
H          1.99797        1.08821       -4.10416
H          1.21865        2.58698       -3.59076
H          3.46910        4.53598       -3.68745
H          2.47735        4.27739       -2.25204
H          4.23008        4.21855       -2.13106
H          6.89673        0.31837       -0.52446
H          7.29155       -1.10167        0.43102
H          6.14364       -1.22600       -0.90353
H          6.62319        0.24678        2.54006
H          6.12937        1.63050        1.56941
H          4.98629        0.88910        2.68031
H          4.17918       -1.45750        2.32365
H          5.75860       -2.11742        1.95159
H          4.45434       -2.27246        0.77966
H          6.23951        3.63589       -1.48766
H          5.23713        3.25261       -0.06659
H          6.93811        2.73080       -0.14294
