75
-122.81206972
P          1.78730       -0.64086        0.11907
C          3.07991       -1.38879       -0.88817
C          4.37504       -1.36987       -0.42230
C          5.38233       -1.96213       -1.16239
C          5.08288       -2.57956       -2.36028
C          3.77962       -2.61285       -2.81459
C          2.77487       -2.02044       -2.07195
H          1.75307       -2.04859       -2.41409
H          3.54444       -3.09900       -3.74713
H          5.86667       -3.04015       -2.93927
H          6.39768       -1.94435       -0.80182
H          4.59039       -0.90795        0.52850
C          1.75390       -1.56633        1.66539
C          1.40295       -0.94846        2.84364
C          1.46637       -1.64446        4.03613
C          1.87591       -2.96282        4.04054
C          2.21868       -3.58459        2.85634
C          2.15972       -2.88178        1.66636
H          2.44051       -3.35068        0.73686
H          2.53573       -4.61446        2.85845
H          1.92169       -3.50903        4.96851
H          1.18801       -1.16045        4.95776
H          1.06143        0.07234        2.82206
C          2.16898        1.08300        0.49276
C          3.34025        1.71969        0.15469
C          3.50785        3.07342        0.40951
C          2.46649        3.77655        1.01453
C          1.28142        3.15627        1.34187
C          1.12692        1.78597        1.07906
O         -0.07685        1.12131        1.36238
C         -1.25231        1.81233        1.02758
C         -1.40302        3.17825        1.31457
C         -2.57678        3.81496        0.97611
C         -3.61203        3.13488        0.33500
C         -3.43162        1.79600        0.01496
C         -2.27044        1.14682        0.36231
P         -1.89413       -0.53211       -0.15329
C         -1.61245       -1.59799        1.26397
C         -1.89805       -1.15528        2.53514
C         -1.79273       -2.02522        3.60473
C         -1.40774       -3.33403        3.39075
C         -1.12422       -3.77384        2.11281
C         -1.23093       -2.90174        1.04419
H         -1.03375       -3.23430        0.03694
H         -0.82116       -4.79447        1.94684
H         -1.32163       -4.01213        4.22400
H         -2.00984       -1.68111        4.60249
H         -2.20516       -0.13277        2.68357
C         -3.32240       -1.22532       -1.01519
C         -4.26022       -1.90084       -0.26611
C         -5.37404       -2.44653       -0.87860
C         -5.54524       -2.30971       -2.24149
C         -4.60905       -1.62471       -2.98937
C         -3.50018       -1.08026       -2.37114
H         -2.78173       -0.51733       -2.93994
H         -4.74528       -1.50803       -4.05202
H         -6.41215       -2.73422       -2.72108
H         -6.10557       -2.97773       -0.29211
H         -4.11576       -2.00102        0.79785
Pd         0.06787       -0.02037       -1.40567
Cl        -1.38100        1.06324       -2.75406
Cl         1.73507        0.85874       -2.65131
H         -4.19283        1.26532       -0.53032
C         -4.85429        3.84699       -0.06570
H         -5.07307        4.67079        0.61490
H         -5.71250        3.17375       -0.05844
H         -4.75645        4.25714       -1.07159
H         -2.68581        4.86173        1.19864
S         -0.06218        4.04527        2.08710
H          2.58093        4.82592        1.22129
C          4.78269        3.75157        0.05311
H          4.12246        1.17160       -0.33882
H          4.66359        4.83560        0.03570
H          5.56464        3.51036        0.77427
H          5.12627        3.44021       -0.93427
