59
-75.79850435
Cl         1.38531        0.43874        2.44516
P          1.45216        0.00670       -0.85952
P         -1.73107       -0.19446       -0.80210
C          0.43299        0.32241       -2.37012
H          0.12861        1.37155       -2.37881
H          1.05258        0.15324       -3.25651
C         -0.77034       -0.57507       -2.33023
H         -0.46856       -1.62528       -2.29804
H         -1.42259       -0.44267       -3.19918
C          2.63041       -1.38051       -1.22095
H          2.42176       -1.66035       -2.26291
C          2.66121        1.35355       -0.45762
H          2.32617        1.81938        0.47761
C         -3.07340       -1.42061       -0.45472
H         -3.15439       -1.47823        0.63784
C         -2.76696        1.32426       -1.06731
H         -2.59234        1.63713       -2.10375
C          4.01712       -0.71399       -1.11644
H          4.74407       -1.43266       -0.71180
H          4.38776       -0.46276       -2.12126
C          3.97654        0.57610       -0.25209
H          4.83621        1.22009       -0.48409
H          4.08769        0.31062        0.80941
C         -4.31424       -0.72749       -1.03975
H         -4.39977       -0.99159       -2.10316
H         -5.22928       -1.11236       -0.56347
C         -4.21245        0.81439       -0.88940
H         -4.56485        1.10172        0.11073
H         -4.88790        1.32219       -1.59420
C          2.44415       -2.60241       -0.32304
H          3.08592       -3.41513       -0.69144
H          1.41833       -2.97399       -0.43890
C          2.72231        2.40261       -1.56338
H          3.07578        1.92265       -2.48551
H          1.70513        2.74836       -1.78914
C         -2.78612       -2.80318       -1.02512
H         -3.69572       -3.41665       -0.96251
H         -2.57574       -2.70914       -2.09828
C         -2.40728        2.45488       -0.10591
H         -3.20605        3.20933       -0.13198
H         -2.41738        2.06048        0.91879
C          2.73814       -2.35740        1.14771
H          3.77573       -2.06078        1.30744
H          2.55939       -3.24813        1.75447
H          2.11253       -1.56235        1.54995
C          3.59691        3.59941       -1.21556
H          4.63576        3.30831       -1.05413
H          3.25292        4.08377       -0.29968
H          3.59132        4.35283       -2.00666
C         -1.63809       -3.49844       -0.31120
H         -0.73516       -2.88872       -0.33820
H         -1.39955       -4.46680       -0.75678
H         -1.87254       -3.66771        0.74154
C         -1.07097        3.11636       -0.40577
H         -1.05135        3.52768       -1.41673
H         -0.85516        3.93410        0.28561
H         -0.24756        2.40672       -0.33023
Cl        -1.75560       -0.18598        2.38152
Pd        -0.12129       -0.02485        0.84621
