111
-148.55224997
P         -2.55271        2.09988        0.77865
P          0.13771        0.44092        0.51022
C         -1.47861        1.87194        2.22489
C         -0.29528        1.17773        2.09543
C         -3.45548        3.71330        0.86934
C         -3.27788        4.51252       -0.40263
C         -1.84676        2.37557        3.45642
H         -2.78068        2.90332        3.55899
C         -1.02258        2.18821        4.55274
H         -1.31003        2.58168        5.51410
C          0.16522        1.49549        4.41756
H          0.80557        1.34759        5.27152
C          0.52824        0.98449        3.18446
H          1.44523        0.42916        3.06295
Pd        -1.25864        1.46282       -1.02533
Cl        -2.91008        2.06701       -2.41384
Cl         0.16073        0.82592       -2.64993
C         -4.91157        3.27775        1.13650
C         -3.97763        0.92001        0.74547
H         -3.69453        3.97394       -1.25496
H         -3.78539        5.47837       -0.34456
H         -2.22164        4.69610       -0.61323
H         -5.60103        4.00921        0.69008
H         -5.11672        3.29912        2.21695
H         -3.84517        0.28685       -0.14283
C         -5.19726        1.85120        0.58749
C         -4.00230        0.07289        1.99881
H         -3.04055        4.26421        1.72399
H         -6.06652        1.40735        1.09431
H         -5.47665        1.92103       -0.47415
H         -4.10998        0.70011        2.88574
H         -4.83415       -0.63551        1.98947
H         -3.07561       -0.49461        2.10809
C         -1.22370       -3.89781        0.24790
C         -1.14362       -3.27202        1.51905
C         -0.71651       -1.95561        1.57779
C         -0.44827       -1.25077        0.43404
C         -0.63240       -1.81844       -0.79855
C         -1.05730       -3.12762       -0.93100
O         -1.42735       -5.30052        0.15854
C         -1.47145       -4.01488        2.82383
H         -0.57355       -1.46401        2.52369
H         -0.42164       -1.21669       -1.66551
C         -1.29604       -3.68832       -2.34111
C          4.53643        0.71915       -0.63253
C          3.83202       -0.49896       -0.80700
C          2.49642       -0.53784       -0.44688
C          1.88156        0.54444        0.12558
C          2.58284        1.69200        0.38754
C          3.92556        1.79649        0.06033
O          5.83522        0.87375       -1.18596
C          4.47000       -1.75512       -1.42029
H          1.90784       -1.41942       -0.62904
H          2.05972        2.51392        0.84517
C          4.68705        3.07961        0.42861
C         -0.20119       -4.69902        3.35098
C         -1.98544       -3.03359        3.90156
C         -2.58237       -5.05754        2.60225
C         -2.37639       -4.78461       -2.33003
C         -1.79695       -2.57335       -3.28872
C          0.02397       -4.24691       -2.89434
C         -0.22336       -6.05676        0.12239
H          0.58279       -3.96517        3.53661
H         -0.39963       -5.22503        4.28447
H          0.18376       -5.42064        2.63450
H         -2.31816       -3.57357        4.78776
H         -1.20858       -2.34143        4.22274
H         -2.82973       -2.45521        3.52851
H         -2.86173       -5.53796        3.53961
H         -3.47165       -4.58747        2.18358
H         -2.26276       -5.83768        1.91572
H         -3.30302       -4.40504       -1.90078
H         -2.58881       -5.13576       -3.33950
H         -2.06486       -5.64398       -1.74194
H         -2.09419       -2.98811       -4.25150
H         -2.66004       -2.06185       -2.86346
H         -1.02432       -1.83194       -3.48610
H         -0.11304       -4.65247       -3.89637
H          0.78035       -3.46423       -2.94825
H          0.41350       -5.03996       -2.26019
H         -0.16259       -6.60673       -0.81649
H          0.64221       -5.39937        0.21466
H         -0.22130       -6.77753        0.93997
C          5.83907        1.37723       -2.51603
C          3.81303       -3.03423       -0.85073
C          4.26157       -1.73460       -2.94229
C          5.97078       -1.83654       -1.08858
C          4.55588        4.09510       -0.71653
C          4.10474        3.70798        1.71529
C          6.17199        2.78419        0.70822
H          2.78064       -3.14066       -1.18025
H          4.34673       -3.92419       -1.18349
H          3.82562       -3.02430        0.23883
H          4.73137       -0.86348       -3.39266
H          4.68521       -2.62448       -3.40708
H          3.19957       -1.69942       -3.18451
H          6.40776       -2.75755       -1.47365
H          6.51964       -1.00542       -1.52395
H          6.12715       -1.81144       -0.01067
H          3.50861        4.33061       -0.90440
H          5.07333        5.02357       -0.47649
H          4.97728        3.70479       -1.63974
H          4.06623        2.97541        2.52114
H          4.72001        4.54253        2.05085
H          3.09990        4.09616        1.55614
H          6.27297        2.03170        1.48958
H          6.69603        3.68286        1.03266
H          6.67701        2.41239       -0.17976
H          6.41007        2.30478       -2.55426
H          6.31628        0.65624       -3.17950
H          4.81891        1.56316       -2.85453
