105
-153.06258025
Cl         0.02900        1.96132        3.08651
Pd        -0.42751        1.33825        0.97011
P         -1.06652        0.54500       -1.15153
N         -0.53968       -0.91466       -1.98449
C          0.28210       -1.97529       -1.60915
C          0.34469       -2.47616       -0.28484
C          1.23012       -3.53627        0.00844
C          1.26715       -4.09219        1.41338
C          2.44781       -5.03275        1.70506
C          2.67910       -6.00554        0.54611
C          2.96964       -5.23600       -0.75003
C          2.00726       -4.10381       -1.00567
C          1.89163       -3.62372       -2.30347
C          1.04518       -2.58908       -2.60118
H          0.98106       -2.21535       -3.60832
H          2.49035       -4.06850       -3.08030
H          3.98698       -4.82811       -0.71792
H          3.49379       -6.70593        0.77908
H          3.35578       -4.43707        1.86310
H          1.28800       -3.25659        2.12162
C         -0.65908       -2.07175        0.73155
C         -0.23311       -1.47642        1.95083
C         -1.16097       -1.33946        2.98726
C         -2.45464       -1.76504        2.83764
C         -2.89142       -2.34720        1.65408
C         -4.31581       -2.84460        1.59498
C         -4.60979       -3.78187        0.41358
C         -3.95025       -3.27049       -0.86944
C         -2.42831       -3.15491       -0.69511
C         -1.99915       -2.48405        0.58770
H         -1.97221       -4.15106       -0.73623
H         -4.36300       -2.28622       -1.12258
H         -5.69311       -3.90289        0.27138
H         -4.98787       -1.98062        1.55714
H         -3.15262       -1.65204        3.64994
H         -0.84717       -0.87573        3.90596
N          1.07168       -0.99422        2.13660
P          1.64686        0.23461        1.01206
C          2.62529       -0.31281       -0.37312
C          2.45089        0.31482       -1.58154
C          3.24049       -0.04492       -2.65837
C          4.21906       -1.02066       -2.52003
C          4.38676       -1.63133       -1.28355
C          3.59433       -1.27201       -0.20804
H          3.72019       -1.73740        0.75668
H          5.13715       -2.39478       -1.16975
C          5.03895       -1.43919       -3.69000
H          3.09653        0.42715       -3.61506
H          1.68879        1.07015       -1.67762
C          2.59240        1.52518        1.82593
C          3.31279        1.24186        2.96119
C          4.04157        2.24280        3.57791
C          4.05011        3.53172        3.06147
C          3.33134        3.79156        1.90234
C          2.60412        2.78958        1.28577
H          2.04237        2.98911        0.38635
H          3.34297        4.78430        1.48589
C          4.84983        4.60484        3.71441
H          4.60931        2.02785        4.46704
H          3.30950        0.23951        3.35793
H          1.23420       -0.57554        3.04335
H         -0.80317       -0.83125       -2.95853
C         -0.64358        1.95285       -2.19589
C         -1.00004        3.22470       -1.81661
C         -0.66507        4.30678       -2.60746
C          0.02775        4.12400       -3.79584
C          0.38508        2.83485       -4.16535
C          0.04454        1.75556       -3.37085
H          0.33150        0.75880       -3.65990
H          0.93514        2.68174       -5.07817
C          0.41754        5.29066       -4.63524
H         -0.93794        5.30293       -2.30344
H         -1.53787        3.36636       -0.89486
C         -2.86058        0.46573       -1.12443
C         -3.51552        0.58667       -2.32744
C         -4.89751        0.52961       -2.37003
C         -5.63252        0.35320       -1.20589
C         -4.95390        0.24494       -0.00058
C         -3.57244        0.28354        0.03619
H         -3.04377        0.18486        0.97067
H         -5.51652        0.14162        0.91127
C         -7.12059        0.32034       -1.24014
H         -5.41339        0.62897       -3.30970
H         -2.94227        0.73040       -3.23026
Cl        -2.28551        2.61517        0.99200
H          2.95433       -5.91885       -1.60920
H          2.28826       -5.57950        2.64518
H          1.78510       -6.62688        0.40880
H          0.32179       -4.61411        1.60333
H         -4.19821       -3.91990       -1.72093
H         -2.00651       -2.60309       -1.54218
H         -4.54899       -3.34931        2.54140
H         -4.22898       -4.78568        0.64062
H          4.52874       -2.21611       -4.26111
H          5.22749       -0.59824       -4.35884
H          6.00545       -1.83394       -3.37367
H          4.91302        4.44784        4.79208
H          5.86543        4.62768        3.31693
H          4.40129        5.58546        3.54945
H         -0.30066        6.10561       -4.53463
H          1.39811        5.66809       -4.34200
H          0.46315        5.01869       -5.69071
H         -7.48623       -0.00856       -2.21388
H         -7.51483       -0.36642       -0.48966
H         -7.53411        1.31003       -1.04173
