64
-97.21547754
Cl        -1.62957       -1.37942       -2.49859
Cl         1.58014       -1.16768       -2.94856
P          1.96074       -0.64994        0.23072
C          2.14850       -2.33043        0.98607
C          3.74953       -0.25007       -0.07274
P         -1.29089       -0.13131        0.44051
C          1.28738        0.57188        1.41343
C         -0.13873        0.82191        1.50198
C         -0.34153        1.91947        2.43517
C          0.96552        2.36224        2.88667
C          1.97506        1.50620        2.29005
H         -1.30299        2.31582        2.76620
H          1.15368        3.16262        3.60574
Pd         0.16305       -0.91567       -1.23564
H          3.05456        1.57187        2.43901
C         -5.01792        2.16117       -0.86527
C         -4.04753        2.80919       -0.12792
C         -2.91450        2.12508        0.27117
C         -2.74734        0.80179       -0.07074
C         -3.71753        0.15476       -0.80192
C         -4.85503        0.83259       -1.20232
H         -5.90206        2.69236       -1.17821
H         -4.17172        3.84664        0.13624
H         -2.15322        2.62633        0.84155
H         -3.57703       -0.88039       -1.06724
H         -5.60967        0.32408       -1.77962
C         -2.64475       -3.92002        2.54761
C         -2.40705       -2.77192        3.27843
C         -2.00320       -1.61603        2.63404
C         -1.83900       -1.62064        1.26819
C         -2.08058       -2.75915        0.53541
C         -2.48403       -3.91581        1.17567
H         -2.95908       -4.82085        3.04905
H         -2.53420       -2.77565        4.34854
H         -1.80726       -0.71168        3.18820
H         -1.96072       -2.73026       -0.53556
H         -2.67384       -4.80983        0.60473
C          4.11713       -0.31613       -1.53875
H          3.92182        0.76024        0.32065
C          4.48193       -1.30797        0.77592
H          4.66575       -0.91582        1.78697
C          3.65795       -2.61927        0.87395
H          5.47545       -1.50435        0.34696
C          1.63881       -2.32413        2.41096
H          1.56345       -3.02641        0.36927
H          3.98342       -3.21864        1.73637
H          3.85636       -3.24140       -0.01087
H          0.58563       -2.04074        2.45496
H          1.74384       -3.30525        2.88008
H          2.19619       -1.60481        3.01431
H          5.18089       -0.12317       -1.69385
H          3.89839       -1.30607       -1.94240
H          3.55700        0.40905       -2.13093
Fe         0.85944        2.43232        0.82777
C          2.20886        3.13695       -0.48558
C          1.41260        4.22861        0.05203
C          0.02138        3.97040       -0.27707
C         -0.03399        2.71440       -1.00372
C          1.31719        2.21724       -1.16618
H          3.29811        3.05964       -0.44395
H          1.79529        5.10018        0.58844
H         -0.82768        4.61285       -0.03383
H         -0.92894        2.26033       -1.43377
H          1.60041        1.32646       -1.72988
