111
-148.55477154
P         -1.50549        2.64728        1.18805
P         -0.35685       -0.23700        0.58145
C         -1.00367        1.56518        2.55824
C         -0.57263        0.28190        2.29417
C         -0.39090        4.11695        1.06396
C          0.43846        4.05724       -0.20144
C         -1.02640        2.02746        3.85852
H         -1.32665        3.04346        4.05633
C         -0.64181        1.19250        4.89348
H         -0.66340        1.55188        5.90936
C         -0.22484       -0.09764        4.62630
H          0.07940       -0.74529        5.43200
C         -0.18000       -0.55144        3.32017
H          0.17552       -1.54348        3.08939
Pd        -1.65997        1.23041       -0.63173
Cl        -2.71232        2.92248       -1.66339
Cl        -1.70137       -0.25309       -2.31584
C         -1.36707        5.30853        1.12695
C         -3.13136        3.49055        1.46547
H         -0.20539        4.01677       -1.08231
H          1.08221        4.93444       -0.29962
H          1.07381        3.16949       -0.22160
H         -1.57211        5.64850        0.10253
H         -0.89450        6.16475        1.63158
H         -3.64034        3.48034        0.49267
C         -2.70754        4.92755        1.81867
C         -3.98285        2.79657        2.50747
H          0.24742        4.09162        1.95677
H         -2.59648        5.00794        2.90873
H         -3.50436        5.63804        1.55034
H         -4.16855        1.75481        2.23616
H         -3.49347        2.79834        3.48167
H         -4.94861        3.29289        2.62679
C         -0.78636       -4.71359       -0.13193
C         -1.93790       -3.93151        0.15174
C         -1.76776       -2.57953        0.40490
C         -0.53336       -1.99349        0.30500
C          0.55968       -2.71978       -0.09079
C          0.46097       -4.07442       -0.36043
O         -0.86515       -6.12996       -0.11497
C         -3.37017       -4.49232        0.15941
H         -2.60719       -1.96284        0.67949
H          1.50298       -2.21112       -0.19510
C          1.70130       -4.78911       -0.92351
C          3.62012        1.36325       -0.95756
C          3.30566        1.47045        0.42163
C          2.10798        0.93624        0.86530
C          1.21734        0.37856       -0.01365
C          1.46595        0.37632       -1.36058
C          2.64145        0.89652       -1.87187
O          4.92305        1.69470       -1.41521
C          4.24733        2.14358        1.43182
H          1.85095        0.95327        1.90959
H          0.70330       -0.01475       -2.01130
C          2.83064        0.95110       -3.39558
C         -3.45986       -5.87666       -0.50630
C         -3.87589       -4.58569        1.60812
C         -4.29399       -3.54741       -0.64122
C          2.33019       -3.92374       -2.03908
C          2.73271       -4.98814        0.19882
C          1.35373       -6.14993       -1.55150
C         -0.62292       -6.67880        1.16943
H         -3.03956       -5.84746       -1.51098
H         -2.91167       -6.62379        0.06280
H         -4.49425       -6.21168       -0.57928
H         -4.90004       -4.95657        1.63988
H         -3.25694       -5.25939        2.19772
H         -3.85728       -3.60905        2.09082
H         -5.29741       -3.96386       -0.72545
H         -4.38704       -2.57246       -0.16605
H         -3.90704       -3.39487       -1.64835
H          3.15629       -4.44792       -2.51893
H          1.59149       -3.68776       -2.80460
H          2.72488       -2.98633       -1.65071
H          2.33156       -5.61077        0.99616
H          3.63357       -5.46915       -0.18143
H          3.02130       -4.03262        0.63584
H          0.99458       -6.84983       -0.80059
H          0.57357       -6.03760       -2.30359
H          2.22540       -6.59694       -2.02891
H         -1.35631       -6.30253        1.88085
H         -0.69692       -7.76516        1.11585
H          0.37279       -6.40233        1.51215
C          5.82398        0.59492       -1.43651
C          5.22546        1.09904        1.98946
C          5.02305        3.30008        0.77551
C          3.44673        2.74841        2.60778
C          3.71883        2.14071       -3.80265
C          3.45421       -0.36701       -3.87818
C          1.46963        1.14413       -4.10390
H          5.89824        1.54549        2.72125
H          4.68564        0.28772        2.47729
H          5.83109        0.66494        1.19752
H          5.64292        3.82031        1.50527
H          5.67742        2.93980       -0.01462
H          4.33568        4.02292        0.33713
H          2.98605        1.97668        3.22271
H          4.09772        3.33017        3.25993
H          2.66258        3.41062        2.24243
H          3.79720        2.21869       -4.88671
H          3.30508        3.07490       -3.42422
H          4.72606        2.03790       -3.40685
H          2.80766       -1.20975       -3.63537
H          3.60288       -0.35653       -4.95760
H          4.41840       -0.54297       -3.40682
H          0.93667        2.00123       -3.69293
H          0.83327        0.26629       -4.00355
H          1.60923        1.31677       -5.17067
H          5.33902       -0.30211       -1.04922
H          6.15882        0.41452       -2.45777
H          6.69728        0.82805       -0.82744
