111
-148.55345135
P         -2.39210        2.36940       -0.15988
P         -0.00781        0.36436        0.47903
C         -1.75859        2.23412        1.52931
C         -0.76138        1.32554        1.80933
C         -2.50421        4.12319       -0.73063
C         -1.70177        4.30738       -2.00040
C         -2.29142        3.00768        2.54035
H         -3.05540        3.73205        2.30949
C         -1.83982        2.85007        3.83925
H         -2.25688        3.45197        4.63006
C         -0.86269        1.91574        4.12383
H         -0.51752        1.78538        5.13628
C         -0.32318        1.15013        3.10575
H          0.43685        0.41283        3.31315
Pd        -1.21248        0.87229       -1.45131
Cl        -2.64194        1.13661       -3.15664
Cl        -0.00369       -0.72990       -2.47317
C         -4.02125        4.34167       -0.91214
C         -4.16355        1.85109       -0.33366
H         -1.75525        5.33660       -2.36371
H         -0.64926        4.05659       -1.84596
H         -2.08167        3.65720       -2.79108
H         -4.19390        5.03996       -1.74399
H         -4.43802        4.83446       -0.02152
H         -4.16049        0.91160       -0.90331
C         -4.77303        3.00292       -1.15804
C         -4.82683        1.65119        1.01288
H         -2.10289        4.75067        0.07676
H         -5.84084        3.10575       -0.91534
H         -4.73332        2.75544       -2.22912
H         -5.84553        1.27100        0.90585
H         -4.26554        0.95014        1.63426
H         -4.88702        2.59509        1.55663
C         -1.16632       -4.02676        0.72969
C          0.20557       -3.67099        0.79132
C          0.53890       -2.32920        0.71900
C         -0.43052       -1.36354        0.65975
C         -1.75975       -1.69431        0.70249
C         -2.16280       -3.01796        0.77251
O         -1.53999       -5.39024        0.59184
C          1.32938       -4.71501        0.88485
H          1.56824       -2.01952        0.68800
H         -2.48275       -0.89747        0.65886
C         -3.66411       -3.33741        0.84248
C          4.49801        1.06129        0.13423
C          3.83300        0.21024       -0.78356
C          2.46246        0.06300       -0.66268
C          1.76452        0.64776        0.36109
C          2.42163        1.39416        1.30552
C          3.79122        1.59030        1.24374
O          5.85795        1.41326       -0.07600
C          4.56303       -0.52760       -1.91698
H          1.90717       -0.49880       -1.39147
H          1.84504        1.83897        2.09559
C          4.48576        2.38565        2.36103
C          2.56732       -4.12487        1.59857
C          0.88137       -5.93918        1.70361
C          1.74194       -5.14506       -0.53123
C         -4.43208       -2.19980        1.55238
C         -4.21872       -3.47931       -0.58345
C         -3.92198       -4.62341        1.64815
C         -1.65528       -5.82800       -0.75643
H          3.31461       -4.89743        1.77837
H          3.04715       -3.35046        1.00213
H          2.29174       -3.69566        2.56148
H          0.05699       -6.45907        1.22207
H          1.69710       -6.65221        1.82049
H          0.55048       -5.63632        2.69646
H          2.56117       -5.86285       -0.49882
H          0.91278       -5.60632       -1.06147
H          2.06807       -4.28511       -1.11511
H         -4.45075       -1.29506        0.94760
H         -5.46864       -2.48445        1.73164
H         -3.97767       -1.96417        2.51441
H         -4.06558       -2.56009       -1.14866
H         -3.72368       -4.28308       -1.12232
H         -5.28725       -3.69223       -0.56764
H         -3.49573       -4.54150        2.64745
H         -4.98994       -4.81492        1.74942
H         -3.47714       -5.49043        1.16658
H         -2.67213       -6.17204       -0.94434
H         -1.41261       -5.01500       -1.44202
H         -0.97822       -6.66457       -0.92819
C          6.03882        2.57180       -0.88082
C          6.00712       -0.87825       -1.51508
C          3.85366       -1.86212       -2.24192
C          4.55973        0.34980       -3.17773
C          4.51555        3.87444        1.98414
C          3.72409        2.23175        3.69756
C          5.91675        1.87003        2.59952
H          6.50087       -1.45818       -2.29443
H          6.60108        0.01602       -1.34510
H          6.01769       -1.46529       -0.59729
H          4.43233       -2.44348       -2.95928
H          3.73559       -2.46405       -1.34184
H          2.86983       -1.70262       -2.68030
H          5.06422       -0.15104       -4.00356
H          3.53917        0.57060       -3.48969
H          5.06349        1.29708       -3.00025
H          4.99088        4.46568        2.76643
H          5.06547        4.03645        1.06030
H          3.50484        4.25549        1.83975
H          4.28364        2.68454        4.51579
H          2.75192        2.72160        3.66709
H          3.57207        1.17990        3.93845
H          6.38649        2.38933        3.43448
H          6.54383        2.02090        1.72432
H          5.90794        0.80407        2.82457
H          6.61508        3.31356       -0.32796
H          6.59521        2.31055       -1.78074
H          5.07343        2.99524       -1.16077
