75
-122.81185317
P          1.92892       -0.53769       -0.16837
C          3.38443       -1.21448       -0.99645
C          3.59419       -1.06144       -2.34677
C          4.72707       -1.58518       -2.93850
C          5.65465       -2.25840       -2.16948
C          5.45071       -2.40404       -0.81199
C          4.31328       -1.87827       -0.22607
H          4.14386       -1.98400        0.83364
H          6.17535       -2.92611       -0.20899
H          6.54016       -2.66715       -2.62830
H          4.88810       -1.46257       -3.99700
H          2.87876       -0.51092       -2.93150
C          1.62698       -1.60606        1.24246
C          1.23815       -2.90627        1.01487
C          1.11816       -3.78174        2.07930
C          1.39618       -3.34888        3.36082
C          1.78768       -2.04330        3.58271
C          1.90590       -1.16984        2.51734
H          2.21906       -0.15004        2.67180
H          2.00012       -1.70452        4.58330
H          1.30007       -4.02973        4.19073
H          0.80933       -4.79963        1.90725
H          1.04635       -3.23380        0.00494
C          2.27906        1.14440        0.35317
C          3.44226        1.79765        0.02005
C          3.61630        3.13591        0.34539
C          2.58594        3.80202        1.00780
C          1.41138        3.16050        1.33427
C          1.25655        1.80077        1.02106
O          0.07814        1.10633        1.33876
C         -1.12540        1.78367        1.08488
C         -1.27155        3.14846        1.37946
C         -2.45723        3.78172        1.08004
C         -3.51002        3.09757        0.47392
C         -3.35349        1.74792        0.19186
C         -2.18049        1.09940        0.49964
P         -1.83225       -0.62132        0.08773
C         -1.78392       -1.58021        1.61257
C         -1.42083       -0.98674        2.79966
C         -1.47498       -1.70681        3.97828
C         -1.88622       -3.02456        3.95945
C         -2.23963       -3.62200        2.76585
C         -2.19053       -2.89517        1.58991
H         -2.48035       -3.34444        0.65347
H         -2.55758       -4.65147        2.74984
H         -1.92436       -3.58954        4.87647
H         -1.18754       -1.24214        4.90706
H         -1.07769        0.03386        2.79538
C         -3.15371       -1.32229       -0.91625
C         -2.88898       -1.89245       -2.14024
C         -3.91862       -2.44586       -2.87877
C         -5.20643       -2.43470       -2.38136
C         -5.46572       -1.87753       -1.14519
C         -4.43355       -1.32417       -0.40924
H         -4.61741       -0.90673        0.56845
H         -6.46904       -1.87609       -0.75197
H         -6.00963       -2.86477       -2.95720
H         -3.71494       -2.88386       -3.84208
H         -1.87958       -1.90095       -2.51804
Pd        -0.05563       -0.06375       -1.38926
Cl        -1.69848        0.93487       -2.59540
Cl         1.34451        0.92162       -2.86526
H         -4.14650        1.21149       -0.29744
C         -4.78637        3.79164        0.15588
H         -5.22535        3.40121       -0.76323
H         -4.62947        4.86223        0.01845
H         -5.51120        3.65731        0.95975
H         -2.56434        4.82671        1.31170
S          0.07981        4.01777        2.13148
H          2.70118        4.84115        1.26109
C          4.88248        3.83987        0.00898
H          4.21260        1.26884       -0.51414
H          4.70386        4.89802       -0.18635
H          5.59750        3.76401        0.82913
H          5.34471        3.41267       -0.88191
