171
-217.84333291
P         -1.63052        0.37147       -0.40134
P          1.57377       -0.41034       -0.32149
C         -0.89545        1.30606       -1.74591
C          0.89066       -1.39949       -1.65373
C         -0.08743        0.66586       -2.67898
C          0.54824        1.44170       -3.66795
C          0.32302        2.80763       -3.70615
C         -0.50704        3.41783       -2.78997
C         -1.11021        2.66136       -1.80480
C          1.11521       -2.75470       -1.64038
C          0.54723       -3.56271       -2.60502
C         -0.26223       -3.00358       -3.57085
C         -0.50206       -1.63944       -3.60054
C          0.10407       -0.81091       -2.63712
Cl         1.50470        0.35232        2.85155
Cl        -1.65715       -0.42981        2.82486
C         -1.38038       -1.07193       -4.65911
C          1.45472        0.82521       -4.67543
H         -0.68134        4.48026       -2.83919
H         -1.75619        3.13107       -1.08125
H          1.73877       -3.18394       -0.87317
H          0.73110       -4.62466       -2.59744
H          0.80834        3.39497       -4.46739
H         -0.71948       -3.63077       -4.31748
C         -4.00105       -3.22881       -1.76162
C         -2.94757       -3.41339       -0.87451
C         -2.22884       -2.29326       -0.47679
C         -2.54947       -1.05361       -0.97005
C         -3.58755       -0.88753       -1.85349
C         -4.34391       -1.97858       -2.26407
H         -4.57538       -4.08752       -2.05376
H         -1.41599       -2.37552        0.22391
H         -3.81830        0.10320       -2.20867
C         -4.19010        2.87912        2.38475
C         -4.76847        1.79088        1.74344
C         -3.97806        1.05636        0.86814
C         -2.67091        1.41075        0.64248
C         -2.11644        2.48830        1.28848
C         -2.86361        3.24073        2.18465
H         -4.79142        3.44624        3.06992
H         -4.36922        0.18545        0.37321
H         -1.08216        2.72725        1.10943
C          4.38246       -2.81181        2.31581
C          3.03519       -3.15573        2.28879
C          2.19526       -2.43380        1.45127
C          2.68397       -1.39860        0.69437
C          4.01363       -1.06391        0.74472
C          4.89412       -1.76753        1.55392
H          5.04721       -3.36499        2.95069
H          1.14545       -2.66872        1.40156
H          4.36817       -0.23538        0.15694
C          3.90677        3.25055       -1.57726
C          2.92386        3.38339       -0.60367
C          2.19316        2.25354       -0.26178
C          2.43981        1.05281       -0.87828
C          3.41449        0.93544       -1.83850
C          4.17458        2.04007       -2.20540
H          4.49974        4.10507       -1.84346
H          1.44430        2.30152        0.51042
H          3.58976       -0.03149       -2.27895
Pd        -0.06780       -0.02753        1.29266
C         -1.36965       -4.81315        0.54416
C         -2.63728       -4.81488       -0.33170
C         -2.41297       -5.78533       -1.50653
C         -3.82323       -5.29710        0.52229
H         -1.49679       -4.17764        1.42027
H         -1.14244       -5.81866        0.89794
H         -0.50909       -4.45644       -0.02049
H         -2.14917       -6.77936       -1.14583
H         -3.30754       -5.88234       -2.12019
H         -1.60507       -5.43370       -2.14697
H         -4.00241       -4.61307        1.35167
H         -4.73710       -5.35291       -0.06826
H         -3.63003       -6.28684        0.93566
C         -5.07897       -1.10266       -4.50614
C         -5.54595       -1.76423       -3.19714
C         -6.56816       -0.85117       -2.49670
C         -6.24062       -3.09422       -3.54852
H         -4.38156       -1.74971       -5.03609
H         -5.92368       -0.91139       -5.16778
H         -4.58321       -0.15143       -4.31682
H         -6.90399       -1.29890       -1.56168
H         -6.13570        0.12262       -2.26967
H         -7.44313       -0.68892       -3.12590
H         -6.62666       -3.58418       -2.65483
H         -7.08254       -2.92470       -4.21969
H         -5.55238       -3.77580       -4.04819
C         -7.14520        2.60096        1.73785
C         -6.22302        1.40799        2.05088
C         -6.34070        1.03350        3.53941
C         -6.68330        0.20476        1.20591
H         -7.04983        2.89669        0.69319
H         -8.18861        2.34573        1.92232
H         -6.90109        3.46523        2.35423
H         -7.35900        0.73521        3.78812
H         -5.67635        0.20358        3.77959
H         -6.07188        1.87229        4.18043
H         -7.72052       -0.04888        1.42438
H         -6.61509        0.43122        0.14282
H         -6.07796       -0.67760        1.41287
C         -0.83779        4.02547        3.45529
C         -2.21707        4.43542        2.90003
C         -3.07936        4.92455        4.08014
C         -2.05241        5.58646        1.89355
H         -0.38873        4.83894        4.02471
H         -0.92918        3.16175        4.11355
H         -0.14553        3.76485        2.65711
H         -4.03785        5.31257        3.73664
H         -3.26617        4.11614        4.78686
H         -2.57737        5.72838        4.61852
H         -1.56060        6.44309        2.35409
H         -1.45691        5.27372        1.03744
H         -3.02262        5.91279        1.51941
C          1.22984       -3.77316        3.92242
C          2.45091       -4.29370        3.13742
C          3.47818       -4.83668        4.14938
C          2.02031       -5.43995        2.20639
H          0.82606       -4.54745        4.57433
H          1.50648       -2.91994        4.54131
H          0.42985       -3.45466        3.25578
H          4.33703       -5.27627        3.64278
H          3.83256       -4.04458        4.80879
H          3.03382       -5.61300        4.77217
H          1.28456       -5.09748        1.48072
H          2.87502       -5.82960        1.65377
H          1.57941       -6.26034        2.77237
C          6.96374       -1.49651        0.16663
C          6.37221       -1.35379        1.58145
C          7.19289       -2.22914        2.54744
C          6.47768        0.11331        2.03994
H          6.88245       -2.52562       -0.18267
H          6.44107       -0.86011       -0.54636
H          8.01702       -1.21686        0.15342
H          7.16120       -3.27726        2.25044
H          8.23819       -1.92041        2.55539
H          6.81690       -2.14625        3.56700
H          5.95983        0.78222        1.35338
H          6.03388        0.24011        3.02715
H          7.51852        0.43200        2.09301
C          2.85893        4.50245        1.63720
C          2.64644        4.70509        0.12484
C          1.19333        5.13079       -0.14424
C          3.58223        5.83167       -0.35300
H          2.66727        5.42436        2.18587
H          2.19533        3.73504        2.03278
H          3.88325        4.19261        1.84305
H          0.49497        4.35992        0.17645
H          0.94986        6.05097        0.38650
H          1.03489        5.30212       -1.20840
H          3.36946        6.76058        0.17605
H          4.62629        5.57891       -0.16900
H          3.45426        6.02255       -1.41836
C          5.14480        2.97895       -4.32838
C          5.33442        1.94039       -3.20661
C          5.41658        0.53998       -3.84539
C          6.65616        2.21592       -2.46597
H          5.15256        3.99499       -3.93611
H          5.94296        2.90370       -5.06672
H          4.19654        2.82715       -4.84221
H          5.60368       -0.22532       -3.09246
H          4.49403        0.29073       -4.36831
H          6.22991        0.49261       -4.56939
H          6.66457        3.21577       -2.03329
H          6.80021        1.50112       -1.65602
H          7.50707        2.13652       -3.14229
H         -0.80537       -0.81803       -5.55025
H          1.75238       -0.18273       -4.38348
H         -1.88489       -0.16919       -4.31167
H         -2.14700       -1.78965       -4.95218
H          2.36343        1.41635       -4.78932
H          0.97139        0.76697       -5.65157
