111
-148.55138238
P         -2.62261        1.86941        0.69858
P          0.23169        0.49512        0.41622
C         -1.61333        1.54958        2.17390
C         -0.35258        1.00835        2.04320
C         -3.68489        3.36517        0.96681
C         -3.49651        4.39736       -0.12261
C         -2.10746        1.84347        3.42939
H         -3.10121        2.24769        3.53067
C         -1.33257        1.60326        4.55082
H         -1.71890        1.83319        5.53039
C         -0.06652        1.06782        4.41607
H          0.53682        0.87860        5.28867
C          0.42221        0.76494        3.15838
H          1.40230        0.33197        3.03990
Pd        -1.18059        1.55732       -1.09045
Cl        -2.82240        2.37818       -2.37817
Cl         0.33501        1.34400       -2.72708
C         -5.10835        2.77167        1.02903
C         -3.92250        0.58388        0.40704
H         -2.44820        4.68976       -0.21674
H         -3.81646        4.00102       -1.08677
H         -4.08416        5.29777        0.07127
H         -5.82680        3.49990        0.62528
H         -5.40393        2.61585        2.07698
H         -3.66832        0.08151       -0.53667
C         -5.20845        1.42274        0.26189
C         -3.96116       -0.41519        1.54274
H         -3.39015        3.78917        1.93599
H         -6.07072        0.83829        0.61481
H         -5.40176        1.62496       -0.80200
H         -4.72021       -1.18344        1.37693
H         -2.99704       -0.91345        1.66242
H         -4.19280        0.08257        2.48616
C         -1.44540       -3.66097       -0.38374
C         -1.06401       -2.83058       -1.46814
C         -0.54178       -1.58227       -1.18157
C         -0.35061       -1.17263        0.11124
C         -0.61060       -2.01448        1.16022
C         -1.11503       -3.28605        0.94444
O         -2.19734       -4.84137       -0.62454
C         -1.26694       -3.23223       -2.93649
H         -0.29666       -0.89158       -1.96968
H         -0.43118       -1.65633        2.15878
C         -1.32287       -4.21988        2.14686
C          4.77647        0.60054        0.12485
C          4.12837       -0.46899        0.79320
C          2.74566       -0.45202        0.87032
C          2.01448        0.54246        0.27377
C          2.63080        1.52304       -0.45797
C          4.00922        1.55477       -0.59160
O          6.18926        0.72913        0.19666
C          4.90229       -1.62117        1.45279
H          2.21470       -1.22476        1.39932
H          2.01330        2.25850       -0.94309
C          4.64670        2.61281       -1.50665
C         -0.19616       -2.57215       -3.83521
C         -1.13314       -4.75445       -3.12053
C         -2.65367       -2.76027       -3.40026
C         -0.25717       -3.94816        3.23310
C         -2.71409       -3.97527        2.75079
C         -1.17565       -5.69617        1.73561
C         -3.60528       -4.64402       -0.58530
H         -0.32700       -1.49263       -3.89312
H          0.80562       -2.77651       -3.45846
H         -0.25589       -2.95555       -4.85347
H         -0.16827       -5.10187       -2.75270
H         -1.90885       -5.28930       -2.57824
H         -1.21551       -5.03088       -4.17137
H         -3.44342       -3.21569       -2.80744
H         -2.74569       -1.67892       -3.29964
H         -2.82492       -3.01797       -4.44503
H          0.74635       -3.99659        2.81113
H         -0.38861       -2.96985        3.69294
H         -0.32090       -4.68765        4.03103
H         -2.89277       -4.63589        3.59876
H         -2.80801       -2.94762        3.10045
H         -3.49849       -4.14908        2.01786
H         -1.94683       -5.98996        1.02802
H         -0.20803       -5.86864        1.26552
H         -1.25475       -6.35401        2.60075
H         -4.04151       -4.93364       -1.54118
H         -4.04163       -5.27052        0.19243
H         -3.83760       -3.59770       -0.38235
C          6.64474        1.54119        1.27140
C          5.25516       -1.23455        2.89705
C          4.04769       -2.90913        1.48401
C          6.18238       -1.94936        0.66324
C          4.92658        3.88730       -0.69652
C          5.94901        2.08798       -2.13842
C          3.69463        2.96677       -2.67251
H          4.35277       -1.02566        3.47132
H          5.79459       -2.03917        3.39613
H          5.87865       -0.34431        2.92551
H          3.20043       -2.81394        2.16162
H          3.66869       -3.14795        0.49061
H          4.63857       -3.75716        1.82944
H          6.87539       -1.11156        0.66595
H          6.69977       -2.80626        1.09393
H          5.94408       -2.18269       -0.37393
H          5.60979        3.68991        0.12604
H          5.37001        4.65948       -1.32467
H          4.00449        4.28480       -0.27313
H          6.36481        2.81209       -2.83857
H          6.70527        1.88965       -1.38316
H          5.76572        1.15993       -2.67891
H          4.19218        3.61012       -3.39773
H          2.81142        3.50053       -2.32534
H          3.36703        2.06674       -3.19214
H          7.20224        2.39097        0.87801
H          5.80076        1.90075        1.86138
H          7.31322        0.96177        1.90802
