105
-153.06748319
Cl        -0.00296        1.78706        3.11368
Pd        -0.53888        1.22376        1.00217
P         -1.17570        0.50366       -1.14536
N         -0.84096       -1.03452       -1.93308
C          0.13360       -1.98489       -1.62355
C          0.32161       -2.47946       -0.30727
C          1.31453       -3.45267       -0.07155
C          1.48452       -3.99816        1.32667
C          2.33988       -5.27143        1.41808
C          3.58685       -5.15847        0.53659
C          3.19225       -4.94592       -0.93230
C          2.10131       -3.92283       -1.12680
C          1.86783       -3.45341       -2.41313
C          0.90105       -2.51473       -2.66025
H          0.74003       -2.15377       -3.66106
H          2.46728       -3.83319       -3.22321
H          4.06815       -4.64505       -1.52140
H          4.19640       -4.31188        0.87680
H          2.61811       -5.48165        2.46048
H          1.93069       -3.21416        1.94917
C         -0.64893       -2.15539        0.76575
C         -0.19629       -1.57735        1.98408
C         -1.10051       -1.46608        3.04490
C         -2.40148       -1.87546        2.91020
C         -2.86599       -2.43049        1.72411
C         -4.30393       -2.88988        1.67327
C         -4.79509       -3.29450        0.27365
C         -3.71744       -4.08086       -0.47716
C         -2.44285       -3.23857       -0.63010
C         -1.98770       -2.57771        0.64812
H         -1.62770       -3.85917       -1.02269
H         -4.08755       -4.41482       -1.45687
H         -5.04982       -2.39548       -0.30090
H         -4.94096       -2.09661        2.08436
H         -3.08390       -1.77048        3.73669
H         -0.76737       -1.01798        3.96454
N          1.09417       -1.04696        2.12883
P          1.57997        0.17987        0.95967
C          2.63031       -0.37361       -0.37244
C          2.43705        0.15577       -1.62345
C          3.28291       -0.20263       -2.65679
C          4.32973       -1.08793       -2.43514
C          4.52853       -1.58244       -1.15239
C          3.67967       -1.22341       -0.12071
H          3.82856       -1.59956        0.87894
H          5.35051       -2.25241       -0.96687
C          5.24337       -1.47260       -3.54571
H          3.13103        0.20098       -3.64313
H          1.62077        0.83883       -1.78385
C          2.46667        1.54563        1.71900
C          3.22899        1.34271        2.84392
C          3.91062        2.40493        3.40976
C          3.83069        3.67417        2.85207
C          3.07208        3.85254        1.70297
C          2.39183        2.78962        1.13731
H          1.79878        2.92547        0.24593
H          3.01547        4.82961        1.25441
C          4.57871        4.81423        3.45050
H          4.50979        2.25373        4.29136
H          3.29391        0.35595        3.27284
H          1.27217       -0.61552        3.02650
H         -1.12301       -0.93296       -2.89970
C         -0.57251        1.85680       -2.16542
C         -0.69830        3.15163       -1.72165
C         -0.20456        4.19568       -2.47996
C          0.41093        3.95130       -3.69975
C          0.52604        2.63878       -4.13683
C          0.02998        1.59734       -3.37441
H          0.13343        0.57939       -3.71068
H          1.01273        2.43678       -5.07574
C          0.97338        5.07138       -4.50386
H         -0.29404        5.20899       -2.12730
H         -1.19371        3.33967       -0.78369
C         -2.96805        0.60720       -1.12505
C         -3.61831        1.08374       -2.23841
C         -4.99969        1.15806       -2.24921
C         -5.73756        0.75135       -1.14576
C         -5.06142        0.28074       -0.02903
C         -3.68130        0.19817       -0.02551
H         -3.15160       -0.16294        0.84074
H         -5.62300       -0.01421        0.84070
C         -7.22258        0.85878       -1.14097
H         -5.51305        1.53837       -3.11573
H         -3.04251        1.39994       -3.09392
Cl        -2.35608        2.55083        0.98541
H          2.85975       -5.89634       -1.36658
H          1.74411       -6.13377        1.09348
H          4.22594       -6.04595        0.64750
H          0.49152       -4.18310        1.75548
H         -3.48281       -4.99751        0.07835
H         -2.60892       -2.45846       -1.38182
H         -4.41793       -3.73751        2.35966
H         -5.72664       -3.87436        0.33817
H          6.07352       -0.76955       -3.62604
H          5.65897       -2.46862       -3.38619
H          4.71697       -1.48376       -4.50123
H          4.68922        4.68983        4.52861
H          5.57625        4.89391        3.01637
H          4.05995        5.75836        3.27859
H          0.40572        5.99019       -4.35022
H          2.00999        5.26549       -4.22499
H          0.94878        4.84202       -5.57010
H         -7.62705        0.78265       -2.15124
H         -7.67205        0.06399       -0.54391
H         -7.53962        1.81489       -0.72240
