72
-98.09488126
Fe         0.02660        2.75949       -0.01826
P          1.91316       -0.05729        0.00877
P         -1.82428       -0.07456        0.05137
C          1.42104        1.55584        0.73779
C          0.39234        1.75487        1.74560
C          0.29053        3.18359        1.98423
C          1.32239        3.86174        1.22165
C          2.00280        2.85357        0.42809
C         -1.39125        1.55520       -0.67550
C         -1.95400        2.85043       -0.32405
C         -1.31598        3.86843       -1.14265
C         -0.33635        3.20591       -1.98424
C         -0.39139        1.78125       -1.70401
C          3.27745       -0.81028        1.02836
C          4.55113       -0.58742        0.18214
C          2.87099        0.22171       -1.55809
C          4.30527        0.37030       -1.01354
C         -3.08042       -0.85041       -1.06439
C         -4.35245       -0.07719       -0.68037
C         -2.96586        0.19134        1.49373
C         -4.35491        0.33634        0.82371
H         -0.25764        0.98535        2.16026
H         -0.40216        3.66150        2.68083
H          1.52087        4.93526        1.21211
H          2.81826        3.03512       -0.27495
H         -2.74439        3.02105        0.41020
H          0.19904        1.00594       -2.19026
Cl         1.63106       -3.06470       -0.25070
Cl        -1.53441       -3.05717        0.33922
Pd         0.05687       -1.47944        0.06793
H          3.05374       -1.88039        1.11243
C          3.36524       -0.20831        2.42792
H          2.51466        1.15255       -2.01536
C          2.75529       -0.94064       -2.54482
H          4.92399       -1.55188       -0.19215
H          5.35392       -0.19719        0.82343
H          4.47861        1.40845       -0.69378
H          5.03276        0.18265       -1.81761
H         -1.53088        4.93907       -1.12325
H          0.30915        3.68921       -2.72134
H          4.32928       -0.48163        2.87919
H          3.55514       -0.85167       -3.29310
H         -3.17710       -1.90370       -0.77825
C         -2.67609       -0.73603       -2.52810
H         -2.65752        1.12328        1.98258
C         -2.92991       -0.96200        2.49451
H         -5.25039       -0.66384       -0.92865
H         -4.40971        0.82212       -1.31082
H         -4.72889        1.36494        0.93502
H         -5.07507       -0.28691        1.37221
H         -2.56429        0.32575       -2.78442
H         -3.12947       -1.89663        1.95429
C          2.23291       -0.65447        3.33776
H          2.29136       -0.19274        4.32596
H          1.26464       -0.39756        2.91205
H          2.24080       -1.73715        3.47768
C          1.41374       -1.04284       -3.25089
H          0.60019       -1.17632       -2.53929
H          1.20088       -0.14400       -3.83243
H          1.37924       -1.89050       -3.93913
C         -3.66233       -1.40679       -3.47197
H         -3.34928       -1.32782       -4.51555
H         -3.76820       -2.46816       -3.23981
H         -4.65462       -0.95925       -3.39283
C         -1.63115       -1.07546        3.27465
H         -0.78790       -1.26552        2.61200
H         -1.41795       -0.15873        3.82745
H         -1.65981       -1.89379        3.99775
H          3.38670        0.88586        2.34157
H          2.97129       -1.87257       -2.00661
H         -1.67628       -1.17111       -2.65763
H         -3.76913       -0.85014        3.19531
