58
-89.86397171
P          1.60941        0.21291        0.82804
C          1.93363        1.91051        0.33439
C          3.13733        2.25207       -0.23879
C          3.36158        3.55514       -0.64500
C          2.37420        4.50669       -0.48097
C          1.16298        4.15700        0.08198
C          0.94333        2.85332        0.48742
H         -0.00937        2.56158        0.89604
H          3.89229        1.49568       -0.37868
C          3.11204       -0.77297        0.82125
C          3.17347       -1.95898        0.12573
C          4.33195       -2.71395        0.15227
C          5.42090       -2.27819        0.88087
C          5.35334       -1.09184        1.58420
C          4.19273       -0.33901        1.55592
H          4.12376        0.58735        2.10457
H          2.31922       -2.28639       -0.44426
C          0.88955        0.12476        2.51523
C          0.23189       -1.23597        2.72836
C         -1.25571       -1.26600        2.40612
P         -1.71523       -0.61215        0.73898
C         -3.08930       -1.58987        0.12729
C         -2.87953       -2.91143       -0.19257
C         -3.92826       -3.67632       -0.67196
C         -5.17860       -3.11033       -0.82577
C         -5.38341       -1.78325       -0.50285
C         -4.33295       -1.02087       -0.02472
H         -4.47583        0.01750        0.22717
H         -1.89440       -3.33563       -0.07617
C         -2.13423        1.14245        0.75637
C         -2.23853        1.87373        1.91864
C         -2.52015        3.22624        1.85686
C         -2.70019        3.83988        0.63313
C         -2.60392        3.10351       -0.53025
C         -2.32080        1.75205       -0.46403
H         -2.23134        1.16094       -1.36202
H         -2.10417        1.39331        2.87280
Pd         0.05972       -0.41632       -0.76399
Cl         1.74630       -0.49568       -2.24450
Cl        -1.48273       -0.96719       -2.31060
H         -1.64226       -2.28702        2.45734
H         -1.82363       -0.69247        3.13992
H          0.75816       -1.97892        2.11117
H          0.38311       -1.57102        3.76684
H          1.71596        0.29701        3.20918
H          0.17991        0.94030        2.65504
H          4.30339        3.82483       -1.09391
H          0.38557        4.89419        0.19747
H          4.38430       -3.63909       -0.39788
H          6.20201       -0.75245        2.15505
H         -3.76719       -4.71039       -0.92885
H         -6.35829       -1.34079       -0.62573
H         -2.59892        3.80128        2.76493
H         -2.74302        3.57940       -1.48695
H          2.54641        5.52171       -0.79998
H          6.32473       -2.86509        0.90087
H         -5.99547       -3.70476       -1.20140
H         -2.91775        4.89448        0.58623
