72
-108.39183589
Cl        -1.91092        0.21169        2.80273
Cl         1.10515       -0.94761        2.63298
P          1.21960       -1.00780       -0.29347
P         -2.22564        0.17639       -0.38100
C         -3.39979       -1.31351       -0.30940
C         -4.12791       -1.30082        1.03141
C         -4.41991       -1.27264       -1.45617
C         -3.15245        1.82843       -0.12683
C         -4.49993        1.79091       -0.84009
C         -1.42130        0.37182       -2.07203
C         -1.31907       -0.87639       -2.93032
C          1.15281        0.33423       -1.52104
C         -0.05240        1.02757       -1.97930
C          0.39236        2.16340       -2.78929
C          1.84159        2.15140       -2.84161
C          2.30989        1.01135       -2.07692
C         -2.56693       -2.59092       -0.39773
H         -3.42238       -1.29490        1.86189
H         -4.77756       -0.43279        1.12813
H         -4.80323       -2.27208       -1.66840
H         -3.99213       -0.87657       -2.37452
C         -3.36462        2.11864        1.35391
H         -4.95170        2.78415       -0.85693
H         -5.20144        1.13434       -0.32876
H         -2.09637        1.06780       -2.58317
H         -0.62835       -1.58681       -2.48565
H         -0.91890       -0.63556       -3.91718
H         -2.27176       -1.37908       -3.08325
H         -0.25972        2.83273       -3.35329
H          2.46987        2.85216       -3.39591
Pd        -0.56480       -0.50452        1.17191
H          3.34861        0.72885       -1.89266
C         -2.30911        2.94711       -0.73466
H         -4.39151        1.46152       -1.87372
H         -3.91082        1.31757        1.84844
H         -2.41282        2.24114        1.86821
H         -3.93221        3.04022        1.49177
H         -2.31600        2.91706       -1.82385
H         -2.68839        3.92689       -0.43895
H         -1.27871        2.87139       -0.40180
H         -4.75461       -2.18801        1.13679
H         -5.28381       -0.65826       -1.20811
H         -1.86358       -2.66218        0.43121
H         -3.20814       -3.47272       -0.35021
H         -2.00466       -2.65077       -1.32615
C          2.92868       -1.09509        0.30563
C          3.46732       -2.19542        0.92458
C          4.78846       -1.88060        1.24283
C          5.00237       -0.59808        0.80126
O          3.86914       -0.10484        0.22185
H          2.95636       -3.12261        1.12680
H          5.50076       -2.51886        1.73968
H          5.92839       -0.04387        0.89241
C          0.82071       -2.64450       -0.93859
C          0.53291       -3.69783       -0.10692
C          0.27636       -4.80245       -0.92045
C          0.42110       -4.37507       -2.21782
O          0.75426       -3.05068       -2.24366
H          0.51061       -3.66258        0.97102
H          0.01704       -5.79623       -0.59386
H          0.29283       -4.98589       -3.10284
Fe         1.21225        2.24839       -0.89066
C          2.84835        2.67682        0.28194
C          1.86531        1.93763        1.04561
C          0.63201        2.69398        1.04638
C          0.84179        3.90325        0.27125
C          2.20783        3.87917       -0.22055
H          3.88262        2.37011        0.11109
H          2.02631        0.98978        1.56244
H         -0.26619        2.41726        1.60021
H          0.11876        4.70763        0.11747
H          2.68788        4.65833       -0.81761
