171
-217.84309772
P         -1.63601        0.38466       -0.42186
P          1.62900       -0.40332       -0.30512
C         -0.86950        1.31946       -1.74701
C          0.93817       -1.38607       -1.63924
C         -0.04347        0.67941       -2.66388
C          0.60855        1.45443       -3.64227
C          0.38703        2.82098       -3.68241
C         -0.45540        3.43219       -2.77801
C         -1.07828        2.67560       -1.80506
C          1.15792       -2.74216       -1.62521
C          0.58274       -3.54999       -2.58585
C         -0.22872       -2.98986       -3.54937
C         -0.46410       -1.62511       -3.58013
C          0.14727       -0.79730       -2.61956
Cl         1.46996        0.29286        2.86976
Cl        -1.69798       -0.55721        2.71521
C         -1.34297       -1.05634       -4.63771
C          1.51914        0.83207       -4.64228
H         -0.62567        4.49521       -2.82821
H         -1.73367        3.14500       -1.08949
H          1.78281       -3.17270       -0.85974
H          0.76268       -4.61260       -2.57694
H          0.88431        3.40798       -4.43614
H         -0.69100       -3.61654       -4.29332
C         -3.98446       -3.23568       -1.76604
C         -2.93238       -3.40829       -0.87506
C         -2.21907       -2.28181       -0.48568
C         -2.53925       -1.04844       -0.99473
C         -3.57281       -0.89498       -1.88576
C         -4.33064       -1.99105       -2.27988
H         -4.55553       -4.09894       -2.05114
H         -1.41253       -2.35381        0.22335
H         -3.79948        0.08985       -2.25944
C         -4.25659        2.89237        2.30984
C         -4.82708        1.82442        1.62690
C         -4.01594        1.09616        0.76710
C         -2.69228        1.42169        0.60674
C         -2.14424        2.47471        1.29662
C         -2.91434        3.22693        2.17369
H         -4.87079        3.47369        2.96979
H         -4.41675        0.25608        0.22764
H         -1.10027        2.69898        1.16053
C          4.37335       -2.82720        2.37080
C          3.02396       -3.15785        2.32378
C          2.20652       -2.42789        1.47142
C          2.71908       -1.39746        0.72368
C          4.05135       -1.07494        0.79347
C          4.91070       -1.79198        1.61568
H          5.02773       -3.37871        3.01920
H          1.15477       -2.64996        1.40523
H          4.41283       -0.24732        0.20982
C          3.91054        3.30525       -1.51914
C          2.92533        3.40924       -0.54462
C          2.21623        2.26201       -0.21564
C          2.48674        1.07185       -0.84281
C          3.46607        0.98242       -1.80140
C          4.20325        2.10615       -2.15788
H          4.48410        4.17471       -1.77949
H          1.46366        2.28923        0.55400
H          3.66005        0.02397       -2.25207
Pd        -0.06700       -0.00577        1.26128
C         -3.80753       -5.28153        0.53611
C         -2.61939       -4.80300       -0.31690
C         -1.35630       -4.78715        0.56517
C         -2.38511       -5.78381       -1.48107
H         -3.61194       -6.26591        0.96101
H         -3.99395       -4.58950        1.35722
H         -4.71813       -5.34781       -0.05838
H         -1.12619       -5.78828        0.92933
H         -0.49467       -4.43125        0.00156
H         -1.49125       -4.14426        1.43466
H         -2.11962       -6.77336       -1.10943
H         -3.27600       -5.88991       -2.09858
H         -1.57498       -5.43527       -2.12043
C         -6.50098       -0.77348       -2.58241
C         -5.53184       -1.78873       -3.21639
C         -6.29726       -3.10459       -3.45595
C         -5.04416       -1.25449       -4.57426
H         -6.82432       -1.11296       -1.59848
H         -6.02917        0.20118       -2.46573
H         -7.38771       -0.64009       -3.20186
H         -7.15354       -2.93984       -4.10992
H         -5.65939       -3.84931       -3.93165
H         -6.67213       -3.51607       -2.51891
H         -4.38558       -1.97557       -5.05677
H         -5.88385       -1.06913       -5.24393
H         -4.49730       -0.31947       -4.45801
C         -6.98636        2.22394        2.91697
C         -6.30321        1.43215        1.78513
C         -6.40289       -0.06961        2.11914
C         -7.04099        1.71960        0.46641
H         -6.99977        3.29163        2.69927
H         -8.02046        1.90343        3.04314
H         -6.47326        2.06984        3.86610
H         -5.83556       -0.30081        3.02042
H         -7.43880       -0.36370        2.28689
H         -6.01251       -0.68658        1.31087
H         -8.09265        1.44243        0.53702
H         -6.98533        2.77888        0.21621
H         -6.60000        1.15973       -0.35657
C         -3.15816        4.85817        4.11094
C         -2.27849        4.40238        2.93003
C         -2.10069        5.57940        1.95659
C         -0.90604        3.98131        3.49473
H         -2.66030        5.63983        4.68466
H         -4.10784        5.26511        3.76507
H         -3.36286        4.02770        4.78643
H         -1.49193        5.28907        1.10177
H         -3.06562        5.91446        1.57655
H         -1.61687        6.42419        2.44652
H         -0.47242        4.77725        4.09979
H         -1.00289        3.09486        4.12122
H         -0.19757        3.75402        2.70054
C          2.00667       -5.43989        2.23095
C          2.41598       -4.28854        3.16507
C          1.17700       -3.76078        3.91659
C          3.41717       -4.82607        4.20571
H          1.54723       -6.25454        2.79042
H          1.29279       -5.09961        1.48279
H          2.87470       -5.83665        1.70476
H          1.43969       -2.90291        4.53514
H          0.39330       -3.44687        3.22885
H          0.75697       -4.52955        4.56474
H          2.95553       -5.59528        4.82474
H          4.28613       -5.27304        3.72342
H          3.75891       -4.02916        4.86602
C          7.24186       -2.69213        1.37532
C          6.40307       -1.44984        1.72805
C          6.71073       -1.00487        3.16911
C          6.79740       -0.30950        0.76791
H          7.01346       -3.03645        0.36681
H          8.30762       -2.46895        1.42244
H          7.04416       -3.51376        2.06260
H          6.10922       -0.13717        3.43950
H          6.49170       -1.79835        3.88272
H          7.76118       -0.73625        3.27937
H          7.86181       -0.08841        0.84555
H          6.59096       -0.58141       -0.26713
H          6.25405        0.60630        1.00029
C          1.16197        5.12266       -0.07862
C          2.62022        4.71840        0.19565
C          3.54020        5.86537       -0.26406
C          2.82551        4.50411        1.70742
H          0.90017        6.03317        0.46000
H          1.00779        5.30285       -1.14188
H          0.47401        4.33731        0.22946
H          3.30989        6.78447        0.27467
H          4.58723        5.62704       -0.07768
H          3.41452        6.06687       -1.32774
H          3.85288        4.20735        1.91729
H          2.61673        5.41779        2.26357
H          2.17031        3.72354        2.09120
C          5.12229        3.07573       -4.28916
C          5.35747        2.04485       -3.16889
C          5.48184        0.64724       -3.80659
C          6.67658        2.36682       -2.44240
H          4.17591        2.89110       -4.79537
H          5.09731        4.09136       -3.89646
H          5.91660        3.02861       -5.03394
H          5.69620       -0.11044       -3.05310
H          4.56574        0.36789       -4.32561
H          6.29330        0.62512       -4.53389
H          7.52223        2.31798       -3.12818
H          6.65495        3.36608       -2.00890
H          6.85504        1.65693       -1.63529
H         -1.81480       -0.13075       -4.30480
H          1.84343       -0.15994       -4.32509
H         -2.13583       -1.75707       -4.90023
H         -0.77551       -0.84132       -5.54388
H          2.41221        1.44055       -4.78382
H          1.02653        0.73411       -5.61054
