105
-153.06532713
Cl        -0.12728        2.51747        2.85555
Pd        -0.46156        1.62459        0.81383
P         -1.09332        0.56425       -1.19726
N         -0.97528       -1.17664       -1.38909
C          0.14818       -2.01323       -1.31206
C          0.29523       -2.84049       -0.17147
C          1.34495       -3.76934       -0.09847
C          1.46957       -4.63053        1.13434
C          2.44197       -5.81121        0.97959
C          3.72448       -5.37677        0.26157
C          3.40708       -4.82913       -1.13888
C          2.24620       -3.86790       -1.16137
C          2.08009       -3.05424       -2.27885
C          1.05694       -2.14312       -2.35759
H          0.94790       -1.52076       -3.22637
H          2.78017       -3.14183       -3.09240
H          4.28899       -4.33009       -1.56075
H          4.22332       -4.59740        0.85151
H          2.67532       -6.25647        1.95701
H          1.78899       -4.00208        1.97339
C         -0.64059       -2.60416        0.95825
C         -0.25426       -1.66163        1.94636
C         -1.21707       -1.18574        2.83675
C         -2.50486       -1.65476        2.78696
C         -2.89441       -2.60398        1.84662
C         -4.32938       -3.06217        1.83228
C         -4.76182       -3.62541        0.47051
C         -3.75078       -4.66722       -0.02070
C         -2.34675       -4.05596       -0.16827
C         -1.96229       -3.08397        0.92298
H         -1.59080       -4.85032       -0.20894
H         -4.08356       -5.11331       -0.96841
H         -4.82224       -2.80663       -0.25782
H         -4.97907       -2.22804        2.12592
H         -3.23637       -1.28184        3.48378
H         -0.92919       -0.43756        3.55407
N          1.07124       -1.18968        1.99785
P          1.46725        0.30406        1.15517
C          2.49706        0.01586       -0.27908
C          3.59064       -0.81228       -0.19038
C          4.40398       -0.99271       -1.29520
C          4.12414       -0.34757       -2.49295
C          3.03133        0.50607       -2.55128
C          2.22518        0.68794       -1.44384
H          1.38764        1.36115       -1.47957
H          2.81062        1.02391       -3.46888
C          4.99888       -0.54014       -3.68197
H          5.26027       -1.64238       -1.23437
H          3.81138       -1.30778        0.74153
C          2.39802        1.38303        2.24054
C          2.56104        1.01907        3.55448
C          3.26665        1.84311        4.41284
C          3.80648        3.03842        3.95628
C          3.63941        3.38112        2.62063
C          2.93328        2.55566        1.76429
H          2.79565        2.82027        0.72774
H          4.06363        4.30080        2.25555
C          4.58296        3.91778        4.87346
H          3.39861        1.56368        5.44409
H          2.12711        0.09453        3.90021
H          1.78439       -1.81040        1.63679
H         -1.64775       -1.36270       -0.65322
C         -0.57357        1.49249       -2.63435
C         -0.36365        2.84684       -2.52761
C          0.06858        3.56118       -3.62948
C          0.28733        2.92256       -4.84333
C          0.03416        1.56029       -4.93828
C         -0.39722        0.84759       -3.83422
H         -0.61246       -0.20597       -3.90255
H          0.17621        1.06151       -5.88174
C          0.73528        3.69438       -6.03530
H          0.23460        4.62217       -3.55393
H         -0.56507        3.33876       -1.58913
C         -2.88005        0.76467       -1.05214
C         -3.60123        1.37626       -2.04960
C         -4.97207        1.50798       -1.92551
C         -5.63020        1.02104       -0.80418
C         -4.88329        0.41377        0.19546
C         -3.51304        0.28259        0.06762
H         -2.93278       -0.19025        0.84250
H         -5.38090        0.05036        1.07810
C         -7.10226        1.18668       -0.65405
H         -5.54000        1.99453       -2.69998
H         -3.08997        1.75166       -2.92084
Cl        -2.09949        3.13253        0.47820
H          3.18595       -5.65970       -1.81973
H          1.95685       -6.60820        0.40225
H          4.44116       -6.20829        0.20482
H          0.47193       -4.99507        1.41023
H         -3.71241       -5.49735        0.69572
H         -2.27446       -3.54110       -1.13351
H         -4.46146       -3.82532        2.60841
H         -5.77358       -4.05186        0.52254
H          5.45449       -1.53141       -3.67890
H          4.43048       -0.44071       -4.60787
H          5.80044        0.19954       -3.69736
H          5.63746        3.63861        4.87771
H          4.51230        4.96322        4.57008
H          4.21086        3.84512        5.89634
H         -0.12056        4.07854       -6.59193
H          1.35615        4.54283       -5.74420
H          1.32344        3.07064       -6.70994
H         -7.33524        2.11523       -0.13121
H         -7.59726        1.21383       -1.62577
H         -7.53469        0.36221       -0.08535
