171
-217.84553679
P         -1.61826        0.43500       -0.33362
P          1.59452       -0.40096       -0.38780
C         -0.89600        1.40743       -1.65900
C          0.84701       -1.32438       -1.73062
C         -0.10987        0.80429       -2.63454
C          0.53204        1.62062       -3.58557
C          0.33595        2.99108       -3.54542
C         -0.46857        3.56693       -2.58508
C         -1.07700        2.76900       -1.63650
C          1.04164       -2.68254       -1.78089
C          0.44216       -3.43130       -2.77483
C         -0.36582       -2.81071       -3.70436
C         -0.57531       -1.44195       -3.66907
C          0.05751       -0.67489       -2.67232
Cl         1.65792        0.61608        2.73456
Cl        -1.43777       -0.30934        2.95737
C         -1.44393       -0.80404       -4.69626
C          1.41730        1.04094       -4.63300
H         -0.61649        4.63434       -2.56860
H         -1.69517        3.21138       -0.87228
H          1.66561       -3.15753       -1.04074
H          0.60327       -4.49588       -2.82147
H          0.82691        3.60970       -4.27771
H         -0.84473       -3.39218       -4.47406
C         -3.84928       -3.30975       -1.52889
C         -2.87260       -3.39532       -0.54401
C         -2.17094       -2.23959       -0.22872
C         -2.45545       -1.05570       -0.86256
C         -3.43166       -0.98382       -1.82532
C         -4.15122       -2.11930       -2.17938
H         -4.40588       -4.18923       -1.79204
H         -1.40498       -2.25522        0.52713
H         -3.63403       -0.03100       -2.28425
C         -4.39988        2.84428        2.31805
C         -4.92620        1.81389        1.54863
C         -4.05518        1.10243        0.73387
C         -2.72201        1.42527        0.68502
C         -2.22052        2.45088        1.44704
C         -3.04993        3.17505        2.29252
H         -5.06371        3.39218        2.95989
H         -4.40827        0.27845        0.14007
H         -1.16825        2.67452        1.39755
C          4.22900       -2.95903        2.27710
C          2.85801       -3.18839        2.27452
C          2.07437       -2.42606        1.41877
C          2.64101       -1.45853        0.62619
C          3.99548       -1.23765        0.65053
C          4.82136       -1.99375        1.47220
H          4.85742       -3.53353        2.93125
H          1.00738       -2.56942        1.39161
H          4.40157       -0.45437        0.03614
C          3.96427        3.20834       -1.72225
C          2.95758        3.37785       -0.78029
C          2.24028        2.25471       -0.38969
C          2.51032        1.03027       -0.94715
C          3.49536        0.88128       -1.89219
C          4.25100        1.97599       -2.29639
H          4.55713        4.05944       -2.00211
H          1.47236        2.32227        0.36098
H          3.67372       -0.09892       -2.30071
Pd         0.02249        0.06448        1.28323
C         -1.20625       -5.24732       -0.37424
C         -2.53805       -4.71094        0.17352
C         -3.63214       -5.77322       -0.05011
C         -2.41520       -4.46431        1.69108
H         -0.41046       -4.51608       -0.24062
H         -0.91381       -6.16671        0.13265
H         -1.28774       -5.45969       -1.43991
H         -3.41550       -6.67683        0.51964
H         -4.60599       -5.40285        0.26984
H         -3.69824       -6.05908       -1.09949
H         -2.23027       -5.39709        2.22354
H         -1.59518       -3.78737        1.92418
H         -3.33224       -4.02698        2.08513
C         -6.61637       -2.41543       -2.49920
C         -5.29067       -2.08138       -3.20776
C         -5.02282       -3.11710       -4.31607
C         -5.42305       -0.69074       -3.85885
H         -7.45174       -2.38402       -3.19845
H         -6.58773       -3.41061       -2.05679
H         -6.81709       -1.70124       -1.70110
H         -5.80359       -3.08469       -5.07580
H         -4.06915       -2.92397       -4.80533
H         -4.99282       -4.12963       -3.91579
H         -4.50229       -0.40443       -4.36582
H         -6.22318       -0.68494       -4.59891
H         -5.65864        0.07033       -3.11519
C         -6.75521        1.03283        3.07193
C         -6.42051        1.47259        1.63523
C         -6.79804        0.32874        0.67241
C         -7.25143        2.71430        1.26277
H         -7.80738        0.76373        3.16307
H         -6.15840        0.16659        3.35700
H         -6.55072        1.82904        3.78677
H         -7.86321        0.10629        0.73399
H         -6.57597        0.59750       -0.36021
H         -6.25695       -0.58543        0.91621
H         -8.31815        2.49268        1.29225
H         -7.06424        3.53848        1.94997
H         -7.00499        3.05413        0.25698
C         -1.22999        3.76082        3.92197
C         -2.45262        4.29855        3.15097
C         -3.47040        4.83474        4.17601
C         -2.02094        5.45349        2.23126
H         -0.81738        4.52443        4.58088
H         -1.50806        2.90161        4.53187
H         -0.43600        3.44561        3.24676
H         -4.32944        5.28617        3.68028
H         -3.82599        4.03616        4.82692
H         -3.01750        5.60002        4.80626
H         -1.57082        6.26388        2.80433
H         -1.29262        5.11557        1.49598
H         -2.87699        5.85553        1.68969
C          3.20117       -4.90904        4.12059
C          2.18167       -4.20461        3.20541
C          1.46495       -5.27065        2.35907
C          1.15637       -3.46946        4.09087
H          2.70246       -5.62029        4.77892
H          3.93723       -5.46116        3.53653
H          3.72578       -4.18977        4.74924
H          0.98347       -6.01548        2.99249
H          0.69770       -4.81956        1.73344
H          2.17021       -5.78471        1.70633
H          0.38029       -2.99498        3.49179
H          0.66952       -4.15869        4.78036
H          1.64354       -2.69071        4.67710
C          6.71792       -1.30134        2.95480
C          6.33776       -1.76273        1.53630
C          6.79015       -0.68331        0.53253
C          7.07039       -3.07485        1.20056
H          6.46132       -2.05560        3.69779
H          7.78804       -1.10882        3.02944
H          6.19000       -0.38385        3.21424
H          7.86991       -0.54160        0.57654
H          6.53544       -0.96746       -0.48837
H          6.32379        0.27713        0.75146
H          8.15085       -2.93251        1.21442
H          6.82959       -3.85917        1.91708
H          6.78934       -3.42912        0.20893
C          2.48178        5.79066       -1.29602
C          2.69681        4.76132       -0.17030
C          3.90922        5.16977        0.68419
C          1.44147        4.75432        0.72334
H          2.24876        6.77324       -0.88606
H          3.37005        5.89402       -1.91770
H          1.65613        5.48960       -1.93971
H          4.07923        4.44533        1.48053
H          4.81521        5.22233        0.08123
H          3.75323        6.14622        1.14241
H          1.23872        5.75104        1.11480
H          0.56710        4.43309        0.15827
H          1.56766        4.08701        1.57552
C          6.73693        2.10245       -2.53769
C          5.41699        1.84572       -3.28693
C          5.26059        2.87711       -4.42103
C          5.47272        0.43898       -3.91427
H          7.59149        2.00872       -3.20756
H          6.75612        3.10311       -2.10703
H          6.86435        1.38744       -1.72549
H          4.31608        2.73891       -4.94525
H          5.28528        3.89699       -4.03979
H          6.06547        2.77817       -5.14923
H          5.64847       -0.32370       -3.15596
H          4.54321        0.20350       -4.43197
H          6.28289        0.37107       -4.64017
H         -0.89075       -0.62907       -5.61990
H          2.33464        1.62212       -4.72748
H         -1.83294        0.15390       -4.34830
H         -2.29718       -1.43932       -4.93452
H          0.92169        1.03744       -5.60475
H          1.70230        0.01554       -4.39404
