45
-71.81481719
C          2.39656        0.93447        2.51204
P          1.56382        0.74513        0.90071
P         -1.04285        0.27358       -0.85966
C         -0.44695       -0.04576       -2.55450
Cl         1.53854       -2.17489        1.97239
H          3.10594        1.75608        2.47221
H         -0.62684       -1.08296       -2.82253
Cl        -1.34449       -2.67717        0.15845
C          0.50832        2.14637        0.47036
C         -0.60572        1.93808       -0.31448
C         -1.39932        3.00164       -0.69145
C         -1.07200        4.28219       -0.28158
C          0.04821        4.49227        0.49905
C          0.84278        3.42284        0.87334
H         -2.27010        2.82186       -1.30160
H         -1.69066        5.11490       -0.57318
H          0.30599        5.48984        0.81471
H          1.72597        3.57731        1.47163
Pd         0.13295       -1.05750        0.62475
H          0.61959        0.15112       -2.61371
H          2.92952        0.02092        2.75962
H         -0.96411        0.60053       -3.25792
C         -5.48865       -0.46916       -0.24480
C         -4.90390       -0.81842       -1.44609
C         -3.55449       -0.59151       -1.64896
C         -2.80169       -0.01505       -0.65140
C         -3.37870        0.33052        0.54946
C         -4.72834        0.10483        0.75470
H         -6.53948       -0.64830       -0.08574
H         -5.49655       -1.27150       -2.22379
H         -3.08612       -0.86867       -2.57926
H         -2.76921        0.77354        1.32177
H         -5.18296        0.37356        1.69402
C          4.42743       -0.13849       -2.51564
C          3.74497        1.06223       -2.48527
C          2.88320        1.33889       -1.43930
C          2.71619        0.41613       -0.43262
C          3.38505       -0.78531       -0.46375
C          4.24801       -1.06495       -1.50704
H          5.09850       -0.35484       -3.33080
H          3.88142        1.78203       -3.27555
H          2.33648        2.26740       -1.40522
H          3.20247       -1.50633        0.31689
H          4.77245       -2.00589       -1.53543
H          1.66142        1.13458        3.28629
