111
-148.55585986
P         -1.64497        2.73939       -0.12848
P         -0.48979       -0.12106        0.53374
C         -1.73274        2.10289        1.56986
C         -1.28919        0.82605        1.84215
C         -0.49774        4.18565       -0.22777
C          0.72057        3.84405       -1.05899
C         -2.21411        2.89497        2.59256
H         -2.52393        3.90542        2.38174
C         -2.27358        2.39455        3.88185
H         -2.65319        3.01129        4.68007
C         -1.84170        1.10917        4.14827
H         -1.88341        0.72208        5.15306
C         -1.33782        0.32512        3.12595
H         -0.96579       -0.66851        3.32091
Pd        -1.17727        0.88483       -1.42378
Cl        -1.77733        2.09355       -3.21554
Cl        -0.65732       -0.98158       -2.56151
C         -1.37962        5.30053       -0.82531
C         -3.21814        3.52978       -0.70277
H          1.39707        4.69749       -1.14640
H          1.27924        3.01267       -0.62435
H          0.42760        3.54676       -2.06797
H         -1.18080        5.36472       -1.90389
H         -1.08973        6.27955       -0.41482
H         -3.32634        3.24390       -1.75732
C         -2.89508        5.03114       -0.59887
C         -4.42583        3.07473        0.08884
H         -0.21690        4.42396        0.80656
H         -3.18976        5.39054        0.39662
H         -3.50730        5.60411       -1.31207
H         -5.34393        3.53014       -0.28926
H         -4.54222        1.98948        0.04315
H         -4.33483        3.34956        1.13995
C         -1.00613       -4.63951        0.73612
C          0.29657       -4.08238        0.67778
C          0.41645       -2.70454        0.61751
C         -0.68570       -1.89260        0.67880
C         -1.93963       -2.42190        0.83682
C         -2.13055       -3.79251        0.91274
O         -1.18783       -6.03929        0.57849
C          1.56881       -4.94292        0.62982
H          1.38174       -2.24423        0.50314
H         -2.77440       -1.74378        0.88805
C         -3.54766       -4.33826        1.14882
C          3.78269        1.38089        0.05634
C          3.25788        0.44018       -0.86638
C          1.95691        0.00465       -0.68692
C          1.22216        0.39415        0.40111
C          1.75729        1.22688        1.34805
C          3.04851        1.71159        1.22439
O          5.02006        2.02483       -0.21140
C          4.04575       -0.07006       -2.08212
H          1.47301       -0.60847       -1.42740
H          1.13810        1.51848        2.17791
C          3.60735        2.62841        2.32316
C          2.75748       -4.19677        1.27834
C          1.38366       -6.25506        1.41326
C          1.92033       -5.24387       -0.83520
C         -4.24743       -4.53770       -0.20411
C         -3.50966       -5.66567        1.92796
C         -4.37962       -3.34628        1.99331
C         -1.37277       -6.44941       -0.77068
H          3.62611       -4.84986        1.35925
H          3.06259       -3.33260        0.69039
H          2.50045       -3.85617        2.28099
H          2.30673       -6.83394        1.43191
H          1.09132       -6.04928        2.44241
H          0.61370       -6.87917        0.96688
H          2.83086       -5.83844       -0.90469
H          1.12148       -5.79319       -1.32745
H          2.07647       -4.31984       -1.39126
H         -5.26213       -4.91086       -0.06788
H         -4.30376       -3.59677       -0.75091
H         -3.70876       -5.24872       -0.82571
H         -4.51636       -6.01770        2.15180
H         -3.00796       -6.44528        1.36030
H         -2.97606       -5.54249        2.86980
H         -5.33823       -3.78399        2.27101
H         -3.85388       -3.08249        2.91066
H         -4.59408       -2.43026        1.44501
H         -0.58547       -7.14837       -1.05237
H         -2.33110       -6.95886       -0.86999
H         -1.34824       -5.58597       -1.43680
C          4.89976        3.21829       -0.97623
C          3.76532        0.84336       -3.28520
C          5.55578       -0.11944       -1.78817
C          3.61249       -1.50963       -2.44376
C          2.98705        2.27753        3.69495
C          5.13109        2.46150        2.46414
C          3.26087        4.08775        1.98996
H          4.29862        0.49816       -4.17046
H          2.70044        0.85819       -3.51684
H          4.07373        1.86660       -3.08440
H          6.10520       -0.53983       -2.63014
H          5.95664        0.87245       -1.59654
H          5.75551       -0.73480       -0.91154
H          2.58950       -1.54375       -2.81510
H          4.24990       -1.92041       -3.22632
H          3.68456       -2.16434       -1.57599
H          1.92712        2.52474        3.73407
H          3.10065        1.21562        3.91143
H          3.47443        2.83596        4.49384
H          5.51700        3.06417        3.28593
H          5.38653        1.42025        2.65777
H          5.64973        2.76907        1.55967
H          3.68685        4.38677        1.03533
H          3.64112        4.76394        2.75516
H          2.18132        4.22237        1.92749
H          5.30847        4.05677       -0.41257
H          5.46875        3.12060       -1.90060
H          3.85389        3.41544       -1.21346
