111
-148.55057530
P         -2.08317        2.49334        0.60464
P          0.01061        0.10965        0.46856
C         -1.22441        1.96822        2.10552
C         -0.34988        0.90587        2.04978
C         -1.80935        4.28890        0.26549
C         -0.97208        4.46311       -0.98339
C         -1.45833        2.60978        3.30450
H         -2.13243        3.45054        3.33468
C         -0.82677        2.16939        4.45483
H         -1.01015        2.66743        5.39288
C          0.03273        1.08883        4.40237
H          0.51971        0.74137        5.29864
C          0.27203        0.45531        3.19606
H          0.93845       -0.39141        3.13974
Pd        -1.51178        0.99854       -1.04731
Cl        -3.26343        1.57828       -2.32291
Cl        -0.81985       -0.52867       -2.55466
C         -3.23929        4.85477        0.16024
C         -3.92623        2.47450        0.78609
H         -1.46547        4.00686       -1.84427
H         -0.81212        5.51923       -1.21360
H          0.00577        3.98644       -0.87609
H         -3.51826        4.91013       -0.90095
H         -3.26924        5.89206        0.52658
H         -4.31744        2.08083       -0.16130
C         -4.27014        3.96901        0.91657
C         -4.37848        1.60892        1.94282
H         -1.29450        4.69489        1.14615
H         -4.27883        4.24000        1.98123
H         -5.29240        4.15932        0.55547
H         -3.98165        1.97996        2.88862
H         -5.46750        1.59300        2.02711
H         -4.03263        0.57960        1.82411
C         -1.00107       -4.32351        0.72512
C         -1.73673       -3.37212        1.47589
C         -1.36935       -2.03975        1.38450
C         -0.35390       -1.63938        0.55458
C          0.29180       -2.54143       -0.24920
C         -0.04064       -3.88595       -0.22281
O         -1.20665       -5.71180        0.94417
C         -2.89948       -3.76891        2.39864
H         -1.87137       -1.28879        1.97041
H          1.05542       -2.17643       -0.91276
C          0.63176       -4.84281       -1.22006
C          4.19728        1.26020       -0.95067
C          3.27659        0.68257       -1.86083
C          2.01644        0.35260       -1.39395
C          1.67800        0.50391       -0.07486
C          2.60141        0.96758        0.82645
C          3.88178        1.31663        0.43059
O          5.41348        1.82029       -1.42464
C          3.60378        0.45731       -3.34556
H          1.25950       -0.00306       -2.06871
H          2.30122        1.07768        1.85251
C          4.89087        1.78514        1.49112
C         -3.91442       -2.61046        2.53035
C         -3.66678       -4.97693        1.83139
C         -2.34982       -4.09812        3.79475
C         -0.30816       -6.00272       -1.59641
C          0.97557       -4.10140       -2.53181
C          1.93072       -5.38878       -0.60890
C         -0.34045       -6.28025        1.91800
H         -4.80150       -2.93328        3.07482
H         -3.49414       -1.76747        3.07701
H         -4.23333       -2.26084        1.54872
H         -3.03598       -5.86136        1.78617
H         -4.53000       -5.21918        2.45076
H         -4.02071       -4.76693        0.82263
H         -3.15441       -4.37164        4.47686
H         -1.64632       -4.92623        3.75586
H         -1.82758       -3.23896        4.21526
H         -1.24995       -5.62031       -1.98860
H          0.14166       -6.64145       -2.35609
H         -0.53467       -6.62601       -0.73504
H          1.76870       -3.37178       -2.38144
H          1.32257       -4.79925       -3.29343
H          0.10167       -3.58217       -2.92462
H          1.73473       -5.93622        0.30994
H          2.43470       -6.06252       -1.30139
H          2.61568       -4.57542       -0.37038
H         -0.93277       -6.72149        2.71945
H          0.25573       -7.07014        1.46156
H          0.32056       -5.51747        2.33142
C          5.31630        3.19269       -1.78555
C          3.17582        1.69378       -4.15041
C          5.10397        0.17984       -3.55249
C          2.84458       -0.77351       -3.89006
C          4.77872        3.30750        1.66356
C          4.60292        1.11346        2.85342
C          6.32835        1.39995        1.09682
H          2.10637        1.87269       -4.04095
H          3.69677        2.58558       -3.80976
H          3.38927        1.56273       -5.21088
H          5.71012        1.03659       -3.27002
H          5.42375       -0.66857       -2.94840
H          5.32027       -0.04625       -4.59633
H          3.15512       -0.99960       -4.90982
H          3.04769       -1.65069       -3.27745
H          1.76834       -0.61051       -3.91310
H          5.47256        3.66643        2.42331
H          5.00036        3.82723        0.73464
H          3.77036        3.58741        1.96777
H          3.66725        1.46378        3.28674
H          4.54872        0.03024        2.74778
H          5.39124        1.34055        3.57078
H          6.63711        1.90138        0.18297
H          6.40595        0.32594        0.93110
H          7.03619        1.67481        1.87842
H          4.31070        3.56732       -1.59035
H          6.03863        3.77297       -1.21157
H          5.54828        3.31176       -2.84371
