105
-153.07196873
Cl         0.01149        1.90764        3.02145
Pd        -0.61152        1.12185        0.99970
P         -1.26508        0.49780       -1.15325
N         -0.95658       -1.06415       -1.89468
C          0.07323       -1.96801       -1.61559
C          0.32008       -2.46834       -0.30932
C          1.34438       -3.41775       -0.11562
C          1.56703       -3.97795        1.26937
C          2.44820       -5.23587        1.31666
C          3.66858       -5.08496        0.40428
C          3.23174       -4.85400       -1.04994
C          2.11214       -3.85420       -1.19868
C          1.83041       -3.37357       -2.47094
C          0.82947       -2.46153       -2.67878
H          0.62729       -2.09785       -3.67110
H          2.41697       -3.72602       -3.30252
H          4.08509       -4.52115       -1.65467
H          4.27232       -4.23409        0.74390
H          2.75834       -5.45741        2.34765
H          2.01631       -3.19383        1.88943
C         -0.61889       -2.18228        0.80162
C         -0.14426       -1.59577        2.00882
C         -1.02172       -1.50388        3.09430
C         -2.31916       -1.93402        2.99238
C         -2.80374       -2.50133        1.82027
C         -4.23663       -2.98092        1.80654
C         -4.73867       -3.47680        0.43951
C         -3.64156       -4.23855       -0.30888
C         -2.41680       -3.33937       -0.52785
C         -1.94825       -2.64171        0.72515
H         -1.58868       -3.92686       -0.94361
H         -4.01777       -4.63022       -1.26460
H         -5.05886       -2.62165       -0.16813
H         -4.87917       -2.17068        2.17406
H         -2.98293       -1.83657        3.83483
H         -0.67332       -1.04867        4.00476
N          1.13408       -1.02879        2.11789
P          1.55961        0.17925        0.90660
C          2.65627       -0.39710       -0.37995
C          2.49192        0.08564       -1.65350
C          3.37698       -0.28807       -2.64788
C          4.43546       -1.14114       -2.36425
C          4.60523       -1.58647       -1.05962
C          3.71652       -1.21257       -0.06745
H          3.84424       -1.54837        0.94932
H          5.43689       -2.22879       -0.82578
C          5.39243       -1.54126       -3.43203
H          3.24763        0.07936       -3.65146
H          1.67000        0.74862       -1.86048
C          2.41161        1.59721        1.60715
C          3.20300        1.46043        2.72192
C          3.86367        2.56362        3.23138
C          3.73441        3.80712        2.62684
C          2.94713        3.91833        1.48858
C          2.28774        2.81463        0.97937
H          1.67181        2.89829        0.09718
H          2.85204        4.87484        1.00369
C          4.46128        4.99043        3.16426
H          4.48553        2.46473        4.10467
H          3.30768        0.49321        3.18588
H          1.32368       -0.57925        3.00428
H         -1.23800       -0.95402       -2.86040
C         -0.53671        1.83651       -2.10063
C         -0.57107        3.10834       -1.57871
C          0.02099        4.15163       -2.26501
C          0.63817        3.92970       -3.48858
C          0.65188        2.64126       -4.00613
C          0.05910        1.59946       -3.31677
H          0.08022        0.59802       -3.71328
H          1.13661        2.45770       -4.94982
C          1.30747        5.04543       -4.21290
H          0.00731        5.14617       -1.85287
H         -1.07330        3.27803       -0.63912
C         -3.04775        0.69774       -1.20074
C         -3.62393        1.51113       -2.14755
C         -4.99816        1.66423       -2.17869
C         -5.80388        1.00006       -1.26386
C         -5.20216        0.18921       -0.31157
C         -3.82840        0.03311       -0.28816
H         -3.35503       -0.59052        0.45119
H         -5.81592       -0.31046        0.41814
C         -7.28052        1.19098       -1.27439
H         -5.45357        2.30758       -2.91208
H         -2.99705        2.02867       -2.85575
Cl        -2.54367        2.25812        1.21244
H          2.91120       -5.80387       -1.49428
H          1.86006       -6.10409        0.99381
H          4.32579       -5.96265        0.48226
H          0.59120       -4.18820        1.72511
H         -3.34612       -5.11866        0.27596
H         -2.64859       -2.57999       -1.28339
H         -4.33472       -3.78580        2.54489
H         -5.63479       -4.10241        0.55665
H          6.21307       -0.82634       -3.50494
H          5.81886       -2.52485       -3.22976
H          4.89912       -1.58892       -4.40392
H          4.58391        4.91881        4.24586
H          5.45297        5.07200        2.71723
H          3.91975        5.91374        2.95386
H          2.34989        5.13652       -3.90455
H          1.28828        4.88273       -5.29143
H          0.81297        5.99711       -4.01327
H         -7.79390        0.31651       -0.87209
H         -7.56287        2.05442       -0.67055
H         -7.64905        1.35368       -2.28820
