111
-148.55263295
P         -2.55800        1.84822        1.04987
P          0.25144        0.46918        0.46499
C         -1.39330        1.52370        2.40916
C         -0.15536        0.97937        2.14203
C         -3.61074        3.32090        1.45207
C         -3.56717        4.36702        0.36058
C         -1.74560        1.81153        3.71297
H         -2.72143        2.21603        3.92537
C         -0.85297        1.56290        4.74145
H         -1.12931        1.78848        5.75852
C          0.38900        1.02341        4.46750
H          1.08255        0.82672        5.26842
C          0.73666        0.72508        3.16249
H          1.69369        0.28393        2.93146
Pd        -1.27246        1.57734       -0.86423
Cl        -3.02704        2.42945       -1.97511
Cl        -0.05750        1.20270       -2.71386
C         -5.00651        2.69833        1.66689
C         -3.85951        0.54337        0.87898
H         -2.54197        4.67984        0.14989
H         -3.98916        3.97389       -0.56492
H         -4.14427        5.25436        0.63120
H         -5.77978        3.41762        1.35992
H         -5.17708        2.52155        2.73904
H         -3.70286        0.06262       -0.09666
C         -5.16850        1.35887        0.89388
C         -3.75390       -0.47535        1.99295
H         -3.21682        3.74215        2.38654
H         -5.97454        0.75261        1.33249
H         -5.48500        1.57234       -0.13780
H         -3.88434        0.00265        2.96561
H         -4.51533       -1.25346        1.89991
H         -2.77524       -0.95952        1.99373
C         -1.34261       -3.75325       -0.13576
C         -0.91166       -3.34525        1.15295
C         -0.43707       -2.05360        1.30682
C         -0.31211       -1.21526        0.23061
C         -0.61149       -1.64723       -1.03361
C         -1.09797       -2.92238       -1.25876
O         -2.05719       -4.97019       -0.29460
C         -0.98462       -4.26464        2.38184
H         -0.17451       -1.67669        2.27963
H         -0.47607       -0.95537       -1.84653
C         -1.39708       -3.35940       -2.70047
C          4.66116        0.74462       -0.61983
C          4.14996       -0.43214       -0.01516
C          2.79981       -0.47785        0.28959
C          1.99065        0.60854        0.08230
C          2.50052        1.78463       -0.40062
C          3.84175        1.89768       -0.72930
O          5.97937        0.75517       -1.14863
C          5.02154       -1.66380        0.27608
H          2.35314       -1.37633        0.67971
H          1.82648        2.61266       -0.53755
C          4.37375        3.24654       -1.23834
C         -0.80176       -5.74017        1.98268
C          0.14511       -3.92565        3.38107
C         -2.33661       -4.07036        3.08517
C         -0.42592       -2.67346       -3.68873
C         -1.21341       -4.87803       -2.87167
C         -2.83369       -2.95318       -3.06297
C         -3.46573       -4.83289       -0.15378
H         -1.60945       -6.08021        1.33937
H          0.13513       -5.87856        1.44409
H         -0.78679       -6.38495        2.86105
H          0.17725       -4.65476        4.19037
H          1.11565       -3.93249        2.88547
H          0.00033       -2.94784        3.83807
H         -3.16463       -4.29740        2.41780
H         -2.41934       -4.71828        3.95739
H         -2.45302       -3.03997        3.41985
H         -0.54673       -3.07766       -4.69344
H         -0.60503       -1.60130       -3.75283
H          0.60919       -2.83047       -3.38660
H         -0.20933       -5.17878       -2.57437
H         -1.92174       -5.43466       -2.26326
H         -1.36413       -5.17662       -3.90877
H         -2.96279       -1.87468       -2.97328
H         -3.07357       -3.23797       -4.08700
H         -3.55589       -3.42852       -2.40336
H         -3.95813       -5.15355       -1.07168
H         -3.81561       -5.46739        0.66036
H         -3.72806       -3.79496        0.05558
C          6.06082        0.34690       -2.50858
C          4.47841       -2.43936        1.49842
C          5.00335       -2.59853       -0.94300
C          6.46717       -1.25444        0.61120
C          3.58438        4.41702       -0.60904
C          5.85066        3.44528       -0.85175
C          4.21048        3.31088       -2.76463
H          4.35562       -1.77673        2.35477
H          3.51829       -2.90735        1.28579
H          5.16423       -3.23557        1.78709
H          5.60147       -3.49081       -0.75998
H          3.98550       -2.91485       -1.17034
H          5.40032       -2.10339       -1.82585
H          6.48422       -0.55838        1.44916
H          7.06837       -2.12295        0.87905
H          6.94877       -0.76968       -0.23426
H          4.03949        5.37310       -0.86673
H          2.55570        4.44751       -0.96488
H          3.57041        4.33514        0.47749
H          6.20643        4.42931       -1.15605
H          5.98025        3.35604        0.22630
H          6.48905        2.70446       -1.32630
H          4.56599        4.26367       -3.15597
H          3.16304        3.19992       -3.04429
H          4.76838        2.51676       -3.25482
H          6.71620       -0.51992       -2.59168
H          5.07070        0.09280       -2.88916
H          6.48503        1.15223       -3.10798
