75
-122.81855515
P          1.85492       -0.56246       -0.00433
C          3.19268       -1.26598       -0.98206
C          4.44590       -1.33337       -0.41665
C          5.49393       -1.88820       -1.12900
C          5.27630       -2.37985       -2.40062
C          4.01450       -2.32278       -2.95819
C          2.96906       -1.76785       -2.24343
H          1.98014       -1.71870       -2.66917
H          3.84365       -2.70814       -3.94996
H          6.09183       -2.81135       -2.95776
H          6.47686       -1.93856       -0.69019
H          4.59620       -0.96030        0.58454
C          1.70625       -1.58484        1.46580
C          1.68783       -1.01752        2.71918
C          1.66284       -1.82628        3.84017
C          1.65586       -3.19961        3.69678
C          1.66943       -3.76499        2.43703
C          1.69709       -2.95283        1.31742
H          1.72628       -3.37850        0.32661
H          1.66057       -4.83666        2.32498
H          1.63250       -3.83134        4.56966
H          1.64397       -1.38445        4.82279
H          1.68594        0.05570        2.81460
C          2.22316        1.14076        0.44720
C          3.38748        1.78924        0.10795
C          3.55938        3.13380        0.40628
C          2.51547        3.82091        1.02452
C          1.33754        3.18728        1.35282
C          1.18834        1.81952        1.07296
O         -0.00287        1.13900        1.37430
C         -1.19095        1.81931        1.05962
C         -1.34247        3.18781        1.33435
C         -2.51545        3.82173        0.98928
C         -3.54679        3.13681        0.34798
C         -3.38008        1.78684        0.07259
C         -2.22126        1.13782        0.42935
P         -1.85034       -0.57176        0.00237
C         -1.70384       -1.57258        1.48915
C         -1.64255       -0.98661        2.73260
C         -1.62086       -1.77744        3.86628
C         -1.65949       -3.15240        3.74593
C         -1.71517       -3.73717        2.49629
C         -1.73966       -2.94257        1.36409
H         -1.80154       -3.38335        0.38147
H         -1.74179       -4.81025        2.40194
H         -1.63875       -3.77040        4.62866
H         -1.56865       -1.32055        4.84079
H         -1.60335        0.08715        2.81041
C         -3.18179       -1.30027       -0.96601
C         -2.93800       -1.86868       -2.19496
C         -3.97583       -2.44434       -2.90448
C         -5.25003       -2.45633       -2.37296
C         -5.48753       -1.90003       -1.13188
C         -4.44714       -1.32470       -0.42473
H         -4.61293       -0.90377        0.55474
H         -6.48014       -1.91596       -0.71269
H         -6.05972       -2.90348       -2.92626
H         -3.78932       -2.88122       -3.87177
H         -1.93884       -1.85559       -2.59922
Pd         0.00210       -0.05551       -1.38774
Cl        -1.61195        0.84566       -2.68746
Cl         1.56669        0.94263       -2.67434
H         -4.15211        1.24945       -0.44882
C         -4.80955        3.83188       -0.01853
H         -5.22453        3.42810       -0.94300
H         -4.64257        4.89910       -0.16961
H         -5.55775        3.71522        0.76648
H         -2.62771        4.86869        1.20930
S         -0.00758        4.06062        2.11058
H          2.62133        4.87000        1.23759
C          4.80594        3.84204        0.01173
H          4.15948        1.25592       -0.41787
H          5.01139        4.67971        0.67944
H          5.66590        3.17184        0.04588
H          4.72307        4.23208       -1.00348
