58
-89.86716706
P          1.70371        0.24297        0.73428
C          3.06634        1.37766        0.45220
C          4.31874        0.89361        0.15089
C          5.36171        1.77513       -0.06875
C          5.14091        3.13582        0.01502
C          3.88210        3.61655        0.31773
C          2.84089        2.73226        0.53779
H          1.84975        3.09217        0.76570
H          4.47424       -0.17106        0.08452
C          2.14445       -1.42417        0.22434
C          2.35813       -1.64413       -1.11773
C          2.66852       -2.91288       -1.57032
C          2.76490       -3.95569       -0.67063
C          2.55514       -3.73112        0.67594
C          2.24425       -2.46036        1.12518
H          2.07896       -2.27829        2.17394
H          2.26826       -0.81604       -1.80312
C          1.33244        0.35238        2.53437
C          0.02471       -0.28184        2.97594
C         -1.20988        0.46619        2.49246
P         -1.69143       -0.00892        0.78589
C         -1.82368       -1.80238        0.74207
C         -2.77297       -2.41662        1.52721
C         -2.87046       -3.79693        1.53731
C         -2.01052       -4.55331        0.76581
C         -1.05481       -3.93345       -0.01386
C         -0.96280       -2.55414       -0.02355
H         -0.20771       -2.06567       -0.61501
H         -3.43268       -1.81365        2.13134
C         -3.27449        0.75522        0.40747
C         -4.27482        0.01475       -0.18015
C         -5.48045        0.61391       -0.49718
C         -5.67346        1.95445       -0.22835
C         -4.66376        2.69664        0.35169
C         -3.45879        2.09427        0.66729
H         -2.65629        2.66716        1.10408
H         -4.10512       -1.02699       -0.39911
Pd        -0.05610        0.65351       -0.73658
Cl         1.53872        1.46564       -2.09733
Cl        -1.81680        1.10621       -2.05729
H         -2.08048        0.24417        3.11475
H         -1.05822        1.54614        2.52878
H         -0.02209       -1.32365        2.63181
H          0.00856       -0.33986        4.07572
H          2.18789       -0.09417        3.04681
H          1.34062        1.41378        2.79001
H          6.34319        1.39993       -0.30791
H          3.70872        4.67838        0.37826
H          2.83091       -3.08597       -2.62141
H          2.62985       -4.54616        1.37696
H         -3.61440       -4.27994        2.14928
H         -0.37516       -4.52166       -0.60821
H         -6.26463        0.03614       -0.95815
H         -4.81071        3.74510        0.55275
H          5.95195        3.82403       -0.15904
H          3.00434       -4.94685       -1.01985
H         -2.08294       -5.62866        0.77505
H         -6.61125        2.42371       -0.47751
