87
-129.18516274
P         -1.54620       -0.30818       -0.37705
P          1.70854        0.39597        0.08344
C         -1.19031        0.92839       -1.63013
C          1.57110       -0.71347       -1.33883
C         -0.12243        0.73446       -2.49739
C          0.14575        1.71498       -3.47348
C         -0.66775        2.83372       -3.54703
C         -1.72437        3.00488       -2.67757
C         -1.98291        2.04639       -1.71784
C          2.31117       -1.86969       -1.25966
C          2.20544       -2.83972       -2.23681
C          1.33694       -2.65291       -3.28944
C          0.57190       -1.50368       -3.38703
C          0.69853       -0.50227       -2.40492
Cl         1.07193        0.21377        3.26072
Cl        -1.50001       -1.67554        2.52240
H         -2.34417        3.88396       -2.74414
H         -2.81064        2.16789       -1.03913
H          2.97134       -2.01990       -0.42107
H          2.78870       -3.74335       -2.16819
H         -0.46012        3.58075       -4.29426
H          1.23764       -3.41219       -4.04659
C         -2.24762       -4.34366       -2.33601
C         -1.33074       -4.24435       -1.29841
C         -1.15107       -3.00876       -0.68891
C         -1.84875       -1.90733       -1.12647
C         -2.74822       -2.01050       -2.16135
C         -2.95322       -3.23688       -2.76611
H         -2.40416       -5.29916       -2.80690
C         -0.57617       -5.43532       -0.82286
H         -0.45559       -2.91040        0.12746
H         -3.27584       -1.13101       -2.49601
H         -3.65803       -3.32643       -3.57641
C         -5.11207        1.02104        2.12914
C         -5.18828       -0.14743        1.39694
C         -4.11159       -0.55332        0.63141
C         -2.97085        0.21344        0.59916
C         -2.89143        1.37536        1.33158
C         -3.96006        1.79528        2.11320
H         -5.95050        1.33972        2.72471
H         -6.08466       -0.74504        1.42486
H         -4.15292       -1.46899        0.06478
H         -1.99254        1.96657        1.29596
C         -3.87029        3.06242        2.88849
C          5.67590       -0.26874        2.21421
C          5.51046        0.82337        1.38550
C          4.30133        1.02795        0.74745
C          3.26921        0.13942        0.94035
C          3.43305       -0.95063        1.76369
C          4.63754       -1.16604        2.42216
H          6.61736       -0.43148        2.71066
H          6.32226        1.51628        1.23609
H          4.15674        1.87800        0.10073
H          2.61408       -1.63488        1.91281
C          4.81054       -2.35165        3.30492
C          0.90167        4.80542       -0.65502
C          1.76982        4.12572       -1.48720
C          2.03472        2.78738       -1.26388
C          1.42660        2.14300       -0.21288
C          0.59047        2.82645        0.64000
C          0.30789        4.16979        0.42680
H          0.68009        5.84292       -0.83867
H          2.22996        4.63370       -2.31880
H          2.69498        2.23615       -1.91426
H          0.17931        2.32034        1.49670
C         -0.64445        4.89254        1.31266
Pd        -0.04132       -0.38434        1.40977
C          1.28376        1.57603       -4.42392
C         -0.37373       -1.35948       -4.52900
H          1.97581        0.79463       -4.10796
H          0.92663        1.32606       -5.42370
H          1.84844        2.50692       -4.49306
H         -0.91376       -2.29079       -4.70542
H         -1.11548       -0.58309       -4.33897
H          0.15880       -1.10182       -5.44522
H         -0.44770       -6.16642       -1.62229
H          0.41691       -5.15354       -0.46945
H         -1.10073       -5.92256        0.00015
H         -4.02931        3.92554        2.24053
H         -4.61739        3.09512        3.68263
H         -2.88870        3.16557        3.35343
H          5.06665       -3.23633        2.72027
H          5.60405       -2.18852        4.03549
H          3.89301       -2.56502        3.85534
H         -1.66197        4.82038        0.92573
H         -0.63707        4.47549        2.32074
H         -0.38662        5.94971        1.38943
