111
-148.55397566
P         -2.27399        2.43818        0.15992
P         -0.18929        0.08503        0.56424
C         -1.84623        1.89444        1.83214
C         -0.92864        0.88172        2.00326
C         -2.22618        4.28496        0.03786
C         -1.01519        4.75861       -0.73665
C         -2.41559        2.50383        2.93161
H         -3.13543        3.29351        2.78904
C         -2.05772        2.09712        4.20548
H         -2.50203        2.57102        5.06548
C         -1.12694        1.09007        4.37544
H         -0.84268        0.77831        5.36700
C         -0.55739        0.48305        3.27042
H          0.18085       -0.29527        3.38627
Pd        -0.91351        1.27333       -1.29211
Cl        -1.88543        2.43116       -2.95205
Cl         0.52933        0.14287       -2.59118
C         -3.57967        4.62310       -0.61419
C         -4.04099        2.12690       -0.28935
H         -0.98801        5.84836       -0.80839
H         -0.08741        4.42637       -0.26557
H         -1.02538        4.36225       -1.75303
H         -3.43848        4.69291       -1.70155
H         -3.92126        5.61971       -0.29577
H         -4.02324        1.71080       -1.30562
C         -4.65185        3.54039       -0.30180
C         -4.69417        1.15994        0.67511
H         -2.19485        4.65926        1.06938
H         -5.10041        3.74124        0.68079
H         -5.48306        3.59173       -1.02140
H         -4.68062        1.55684        1.69163
H         -5.73664        0.97209        0.40758
H         -4.16934        0.20152        0.69169
C         -1.30568       -4.32393        0.17446
C         -0.58838       -3.67188       -0.85996
C         -0.30407       -2.32639       -0.70860
C         -0.62282       -1.65177        0.44014
C         -1.22937       -2.30371        1.48227
C         -1.55351       -3.64759        1.39629
O         -1.80707       -5.63782       -0.02505
C         -0.14285       -4.38419       -2.14683
H          0.15488       -1.76958       -1.50593
H         -1.46183       -1.74145        2.36834
C         -2.19170       -4.34336        2.60926
C          4.25551        0.98035        0.22999
C          3.81880       -0.36835        0.17050
C          2.46275       -0.62392        0.28295
C          1.57136        0.38926        0.51711
C          1.99864        1.68087        0.68249
C          3.34181        2.00556        0.58636
O          5.59405        1.30898       -0.11224
C          4.77990       -1.54291       -0.06885
H          2.08021       -1.62190        0.16436
H          1.25808        2.44002        0.86994
C          3.77197        3.46166        0.82066
C          1.16140       -3.75751       -2.69188
C          0.15316       -5.87217       -1.88641
C         -1.23910       -4.23773       -3.21282
C         -1.73302       -3.67766        3.92694
C         -3.72086       -4.23269        2.51297
C         -1.77005       -5.82218        2.68405
C         -3.10453       -5.68122       -0.60595
H          1.00484       -2.74039       -3.04755
H          1.93140       -3.73717       -1.92169
H          1.54553       -4.33392       -3.53308
H          0.52946       -6.35993       -2.78529
H          0.90136       -5.98249       -1.10214
H         -0.73971       -6.40636       -1.57205
H         -0.94772       -4.72583       -4.14243
H         -2.17516       -4.67961       -2.87964
H         -1.42743       -3.18620       -3.42842
H         -2.13268       -2.66989        4.03043
H         -2.07883       -4.24783        4.78889
H         -0.64576       -3.62362        3.97625
H         -4.20116       -4.70450        3.36982
H         -4.03041       -3.18814        2.48495
H         -4.09514       -4.71293        1.61222
H         -2.17050       -6.29920        3.57824
H         -2.13025       -6.38149        1.82418
H         -0.68446       -5.91080        2.70942
H         -3.77964       -6.23033        0.05028
H         -3.48694       -4.67130       -0.75921
H         -3.06164       -6.20221       -1.56219
C          5.78014        1.59816       -1.49231
C          4.90310       -1.79482       -1.57940
C          6.16628       -1.26102        0.53803
C          4.24790       -2.82864        0.60474
C          3.67700        4.23624       -0.50274
C          2.84849        4.14020        1.85842
C          5.20410        3.53758        1.38012
H          5.55953       -2.64050       -1.78263
H          3.92781       -2.01099       -2.01460
H          5.30674       -0.92509       -2.09214
H          6.82642       -2.12039        0.42318
H          6.64547       -0.41224        0.05673
H          6.08150       -1.03786        1.60103
H          4.98381       -3.63008        0.54360
H          4.03145       -2.65274        1.65810
H          3.34069       -3.19187        0.12479
H          4.32908        3.80559       -1.25894
H          2.65924        4.21160       -0.89155
H          3.96156        5.27923       -0.36650
H          2.79174        3.54832        2.77159
H          3.22397        5.12854        2.12260
H          1.83847        4.27503        1.47495
H          5.28938        2.95385        2.29606
H          5.48244        4.56660        1.60627
H          5.92952        3.14981        0.66953
H          4.83776        1.49511       -2.03199
H          6.15502        2.61506       -1.60672
H          6.51689        0.91421       -1.91330
