111
-148.55128020
P         -2.03213        2.55097        0.94598
P         -0.21835       -0.03097        0.55383
C         -1.27438        1.75186        2.38315
C         -0.49087        0.63227        2.20995
C         -1.67430        4.36660        0.98415
C         -1.06876        4.83037       -0.32265
C         -1.43323        2.29440        3.64233
H         -2.02715        3.18510        3.76695
C         -0.81224        1.70591        4.73038
H         -0.93885        2.12707        5.71438
C         -0.01879        0.58906        4.55346
H          0.47600        0.13787        5.39774
C          0.15095        0.05762        3.28760
H          0.79730       -0.79161        3.12905
Pd        -1.35309        1.37247       -0.91550
Cl        -2.68976        2.67406       -2.16034
Cl        -0.46306        0.22628       -2.63017
C         -3.05315        4.98726        1.28918
C         -3.88321        2.57996        0.97704
H         -1.76654        4.67136       -1.14630
H         -0.82527        5.89519       -0.29768
H         -0.15556        4.27913       -0.55647
H         -3.11919        5.98118        0.82295
H         -3.15555        5.16057        2.37050
H         -4.21204        1.99995        0.10354
C         -4.21459        4.07633        0.80181
C         -4.43288        1.96878        2.24805
H         -0.97108        4.53082        1.81215
H         -5.14462        4.31234        1.33911
H         -4.42191        4.28975       -0.25716
H         -5.52511        1.94261        2.23977
H         -4.07085        0.94714        2.38599
H         -4.12696        2.54828        3.12017
C         -0.98206       -4.51703        0.18481
C         -1.17973       -3.88188        1.43742
C         -0.94643       -2.51968        1.52790
C         -0.60363       -1.78206        0.42366
C         -0.53832       -2.37613       -0.80970
C         -0.75183       -3.73307       -0.97336
O         -0.97944       -5.93472        0.09830
C         -1.60249       -4.65560        2.69625
H         -1.02638       -2.01643        2.47389
H         -0.31869       -1.75121       -1.65628
C         -0.69690       -4.33146       -2.38778
C          3.98060        1.04468       -0.82498
C          3.57035       -0.31299       -0.86407
C          2.28889       -0.62232       -0.44246
C          1.46116        0.34277        0.06611
C          1.88853        1.63749        0.20619
C          3.15901        2.01550       -0.19563
O          5.19351        1.44041       -1.44895
C          4.46621       -1.44154       -1.39802
H          1.91277       -1.62628       -0.52268
H          1.20269        2.35458        0.62446
C          3.60908        3.46869        0.01963
C         -2.40592       -3.74568        3.65332
C         -2.51369       -5.84321        2.33610
C         -0.34941       -5.15428        3.43164
C         -1.17587       -3.29981       -3.43500
C          0.75135       -4.72495       -2.71657
C         -1.62202       -5.55575       -2.50979
C          0.30367       -6.52248        0.27351
H         -2.81709       -4.32281        4.48127
H         -1.78234       -2.96543        4.08730
H         -3.23659       -3.27150        3.13122
H         -3.38336       -5.50314        1.77487
H         -1.98907       -6.57511        1.72688
H         -2.86610       -6.35292        3.23246
H         -0.61830       -5.69420        4.33919
H          0.23579       -5.82254        2.80456
H          0.29050       -4.31821        3.71298
H         -1.26422       -3.75946       -4.41902
H         -2.15154       -2.89712       -3.16464
H         -0.47850       -2.46929       -3.53283
H          0.82186       -5.15662       -3.71459
H          1.40402       -3.85329       -2.68013
H          1.13353       -5.45434       -2.00633
H         -1.29985       -6.36372       -1.85786
H         -2.64334       -5.29317       -2.23610
H         -1.63189       -5.93957       -3.52962
H          0.58068       -7.07308       -0.62528
H          1.05095       -5.75343        0.47345
H          0.27239       -7.22466        1.10650
C          5.04874        1.79800       -2.81780
C          5.95415       -1.14355       -1.13969
C          4.14594       -2.77538       -0.68432
C          4.21195       -1.61742       -2.90299
C          5.12499        3.54508        0.27624
C          3.23819        4.30521       -1.21437
C          2.91054        4.07910        1.25646
H          6.58182       -1.97381       -1.46249
H          6.28134       -0.25674       -1.67624
H          6.13284       -0.97579       -0.07814
H          3.15552       -3.14625       -0.94296
H          4.85985       -3.54774       -0.96964
H          4.19546       -2.65710        0.39777
H          4.81975       -2.42472       -3.31070
H          3.16495       -1.85387       -3.09130
H          4.44748       -0.70849       -3.45139
H          5.69095        3.20202       -0.58635
H          5.43546        4.56781        0.48861
H          5.40198        2.92272        1.12648
H          2.16534        4.26545       -1.39942
H          3.51924        5.34909       -1.07747
H          3.73991        3.93717       -2.10576
H          3.32266        5.06095        1.48815
H          3.04656        3.44401        2.13145
H          1.84244        4.21247        1.09260
H          4.00197        1.73486       -3.11815
H          5.41103        2.81469       -2.96938
H          5.64531        1.12897       -3.43754
