72
-98.10122597
Fe         0.03217        2.77099       -0.03185
P          1.92807       -0.04555       -0.03539
P         -1.81932       -0.07589        0.04432
C          1.45140        1.57205        0.67997
C          0.43959        1.77331        1.70325
C          0.35202        3.19797        1.96887
C          1.33349        3.87328        1.13902
C          2.02794        2.86676        0.35389
C         -1.39507        1.55482       -0.68268
C         -1.96341        2.84535       -0.32176
C         -1.30078        3.86853       -1.11373
C         -0.33461        3.21105       -1.97565
C         -0.40334        1.78279       -1.71792
C          3.36959       -0.67653        0.94688
C          4.53383        0.11073        0.32198
C          2.84349        0.18815       -1.63786
C          4.31235        0.39099       -1.19284
C         -3.06545       -0.86133       -1.07921
C         -4.33607       -0.06565       -0.73932
C         -2.99378        0.22446        1.45761
C         -4.36193        0.39041        0.75181
H         -0.15689        0.98958        2.17122
H         -0.31887        3.67482        2.68690
H          1.53040        4.94752        1.12300
H          2.82985        3.04526       -0.36563
H         -2.74736        3.01451        0.41933
H          0.17559        1.00793       -2.21892
Cl         1.67534       -3.05905       -0.04883
Cl        -1.54803       -3.01922        0.41241
Pd         0.07524       -1.48068        0.11406
H          3.46951       -1.74547        0.72686
C          3.22887       -0.45668        2.44928
H          2.44560        1.09222       -2.11365
C          2.69470       -1.01355       -2.57189
H          5.48656       -0.41466        0.49128
H          4.63008        1.06393        0.86218
H          4.65438        1.40502       -1.44801
H          4.95297       -0.27941       -1.78259
H         -1.50700        4.94096       -1.07992
H          0.31263        3.70028       -2.70764
H          4.19771       -0.65006        2.93047
H          3.46496       -0.95425       -3.35367
H         -3.18017       -1.90646       -0.77049
C         -2.63682       -0.78675       -2.53838
H         -2.67674        1.15563        1.94259
C         -3.01358       -0.91090        2.47798
H         -5.23515       -0.65065       -0.98714
H         -4.37367        0.81575       -1.39596
H         -4.70804        1.43202        0.82528
H         -5.11295       -0.19537        1.30025
H         -2.49585        0.26648       -2.81449
H         -3.22166       -1.85057        1.94996
C          2.15486       -1.32146        3.08335
H          1.17951       -1.10189        2.65346
H          2.34888       -2.38228        2.91433
H          2.08104       -1.16465        4.16188
C          1.32865       -1.14170       -3.22394
H          0.54216       -1.23493       -2.47719
H          1.09778       -0.26997       -3.83896
H          1.26525       -2.02093       -3.86920
C         -3.62414       -1.45344       -3.48406
H         -3.76022       -2.50659       -3.23115
H         -4.60613       -0.98007       -3.43141
H         -3.29232       -1.40490       -4.52370
C         -1.73740       -1.03627        3.28972
H         -0.89006       -1.26279        2.64578
H         -1.51043       -0.11054        3.82173
H         -1.80045       -1.83545        4.03183
H          3.02187        0.60551        2.63409
H          2.93141       -1.92314       -2.00431
H         -1.64683       -1.24871       -2.64372
H         -3.86665       -0.76596        3.15554
