171
-217.83898869
P         -1.50565        0.36874       -0.20012
P          1.68367       -0.54008       -0.46740
C         -0.82827        1.46730       -1.45249
C          0.89521       -1.24159       -1.94033
C         -0.15582        0.94683       -2.54931
C          0.39078        1.83167       -3.49898
C          0.23200        3.19659       -3.32252
C         -0.43987        3.69561       -2.22729
C         -0.96788        2.82463       -1.29512
C          1.11505       -2.57669       -2.18811
C          0.43475       -3.22794       -3.19785
C         -0.49907       -2.54098       -3.94204
C         -0.74027       -1.19727       -3.71568
C         -0.00294       -0.52068       -2.72407
Cl         1.54479       -1.25201        2.71965
Cl        -1.65170       -1.65253        2.38419
C         -1.79775       -0.51146       -4.50913
C          1.12245        1.31007       -4.68705
H         -0.55144        4.75977       -2.09784
H         -1.49444        3.20878       -0.43836
H          1.82694       -3.12023       -1.59046
H          0.61779       -4.27317       -3.38714
H          0.63993        3.87225       -4.05495
H         -1.05582       -3.04820       -4.71200
C         -4.32535       -2.68693       -2.01099
C         -3.19163       -3.12301       -1.33753
C         -2.35293       -2.16141       -0.79074
C         -2.64094       -0.82441       -0.91361
C         -3.75925       -0.41225       -1.59486
C         -4.62905       -1.33807       -2.15707
H         -4.98866       -3.42400       -2.42268
H         -1.46107       -2.45424       -0.26630
H         -3.95599        0.63950       -1.69702
C         -3.59687        3.03749        2.84887
C         -2.56350        2.22453        3.29210
C         -1.93672        1.40810        2.36169
C         -2.34508        1.38204        1.04882
C         -3.37845        2.18955        0.63652
C         -4.01679        3.04511        1.52588
H         -4.08736        3.68375        3.55344
H         -1.12167        0.78287        2.67213
H         -3.66224        2.17852       -0.40012
C          3.02606        3.78860       -0.41808
C          3.51802        2.95109       -1.41336
C          3.07391        1.63413       -1.43472
C          2.18199        1.18509       -0.49211
C          1.71449        2.02617        0.49001
C          2.12814        3.34951        0.54733
H          3.36095        4.80713       -0.38585
H          3.43483        0.94789       -2.18247
H          1.02860        1.64824        1.22781
C          4.97518       -3.25685        1.06880
C          3.66298       -3.71351        1.06948
C          2.68238       -2.86066        0.58401
C          3.00363       -1.60991        0.11861
C          4.30496       -1.17243        0.12808
C          5.32089       -1.99303        0.60466
H          5.75241       -3.89157        1.45085
H          1.64787       -3.16237        0.60528
H          4.51774       -0.17976       -0.22647
Pd         0.01348       -0.79930        1.14280
C         -2.82850       -5.27858       -2.57356
C         -2.91132       -4.62463       -1.18246
C         -4.05119       -5.26766       -0.37235
C         -1.58214       -4.88172       -0.44291
H         -3.76454       -5.17069       -3.12005
H         -2.03948       -4.81969       -3.16773
H         -2.61171       -6.34349       -2.49133
H         -5.00906       -5.15320       -0.87851
H         -3.87448       -6.33328       -0.22747
H         -4.13376       -4.80194        0.60953
H         -1.38897       -5.95053       -0.35311
H         -0.74328       -4.43921       -0.97877
H         -1.60563       -4.46631        0.56439
C         -5.56652        0.21005       -3.91202
C         -5.91142       -0.84862       -2.84657
C         -6.83575       -0.22719       -1.78411
C         -6.66074       -2.00239       -3.54067
H         -6.46764        0.56363       -4.41286
H         -5.07345        1.07615       -3.47282
H         -4.90505       -0.20598       -4.67086
H         -7.76022        0.13595       -2.23271
H         -7.09462       -0.96182       -1.02187
H         -6.35132        0.61160       -1.28597
H         -6.02531       -2.49314       -4.27782
H         -6.99333       -2.74776       -2.81864
H         -7.54534       -1.63226       -4.05885
C         -1.65230        3.64753        5.14624
C         -2.14967        2.24043        4.77078
C         -1.02178        1.22850        5.05780
C         -3.36460        1.86826        5.64066
H         -2.42855        4.39613        4.99189
H         -1.35133        3.68851        6.19289
H         -0.79267        3.92633        4.53830
H         -0.12483        1.46468        4.48662
H         -0.75075        1.24001        6.11324
H         -1.33184        0.21405        4.80770
H         -3.74459        0.88408        5.36725
H         -3.09602        1.84525        6.69665
H         -4.17501        2.58586        5.51901
C         -6.43865        3.61160        1.82886
C         -5.14475        3.98880        1.08563
C         -5.40532        3.89729       -0.43105
C         -4.75321        5.44025        1.42109
H         -6.31647        3.70575        2.90732
H         -7.26401        4.25672        1.52817
H         -6.71921        2.58081        1.61283
H         -6.19802        4.58324       -0.72940
H         -4.51222        4.15785       -0.99897
H         -5.71612        2.89301       -0.71651
H         -4.61550        5.57762        2.49285
H         -3.82026        5.71044        0.92646
H         -5.52375        6.13776        1.09309
C          5.85298        2.59699       -2.24891
C          4.56529        3.41926       -2.43574
C          4.90801        4.91171       -2.26210
C          4.02628        3.21039       -3.86086
H          6.62907        2.92278       -2.94124
H          6.23656        2.70691       -1.23477
H          5.67065        1.53814       -2.42770
H          5.33217        5.10590       -1.27715
H          5.64188        5.22822       -3.00325
H          4.02238        5.53428       -2.38851
H          3.82597        2.15784       -4.05498
H          3.10095        3.76651       -4.00559
H          4.74527        3.55365       -4.60456
C          0.09487        4.39280        1.59228
C          1.62401        4.25119        1.68504
C          2.24649        5.65886        1.61738
C          2.00279        3.61531        3.03587
H         -0.28870        5.03222        2.38681
H         -0.19247        4.83609        0.63965
H         -0.39500        3.42463        1.67816
H          3.33264        5.61177        1.69387
H          1.98516        6.15897        0.68494
H          1.88498        6.28052        2.43647
H          3.08211        3.48446        3.10994
H          1.68077        4.24180        3.86732
H          1.54004        2.63694        3.15625
C          4.47134       -5.90725        2.07556
C          3.25119       -5.08742        1.61550
C          2.51910       -5.87574        0.51282
C          2.31043       -4.88647        2.81861
H          5.00284       -5.40134        2.88132
H          4.16265       -6.88407        2.44774
H          5.16588       -6.07163        1.25190
H          2.23421       -6.86680        0.86549
H          1.61174       -5.36386        0.19460
H          3.15796       -5.99863       -0.36151
H          1.40653       -4.35151        2.52936
H          2.01053       -5.84330        3.24528
H          2.80285       -4.30625        3.59853
C          7.66285       -2.52122       -0.13157
C          6.78537       -1.53491        0.66165
C          7.24437       -1.49456        2.13053
C          6.96496       -0.13043        0.05420
H          8.70537       -2.20337       -0.13000
H          7.62085       -3.52282        0.29445
H          7.33075       -2.58364       -1.16773
H          8.27717       -1.15524        2.20792
H          6.62031       -0.81380        2.70922
H          7.18079       -2.47945        2.59175
H          6.38190        0.61178        0.59914
H          8.00950        0.17836        0.09319
H          6.65564       -0.11757       -0.99032
H         -2.73156       -1.07335       -4.46215
H          1.82766        0.52911       -4.39819
H         -1.51091       -0.42868       -5.55832
H         -1.99852        0.49171       -4.13082
H          1.68310        2.09897       -5.18976
H          0.43176        0.88528       -5.41568
