64
-97.21033819
Cl        -1.55903       -1.37389       -2.58828
Cl         1.64613       -1.26380       -2.90591
P          1.93695       -0.60274        0.26675
C          2.14795       -2.27708        1.03236
C          3.72321       -0.17871       -0.03041
P         -1.26540       -0.15060        0.43929
C          1.25964        0.61199        1.45149
C         -0.16985        0.82894        1.53175
C         -0.39793        1.93132        2.45413
C          0.89579        2.39162        2.92823
C          1.92473        1.55571        2.33559
H         -1.36947        2.31222        2.77430
H          1.06296        3.19499        3.64934
Pd         0.18064       -0.94018       -1.24650
H          3.00169        1.63929        2.49275
C         -5.01367        2.06623       -0.93816
C         -4.07335        2.73180       -0.17789
C         -2.93485        2.07033        0.24309
C         -2.73193        0.75226       -0.09983
C         -3.67279        0.08744       -0.85312
C         -4.81547        0.74262       -1.27575
H         -5.90198        2.57975       -1.26832
H         -4.22518        3.76538        0.08700
H         -2.19671        2.58563        0.83115
H         -3.50580       -0.94391       -1.11774
H         -5.54679        0.22029       -1.87047
C         -2.60982       -3.96680        2.50352
C         -2.39286       -2.82205        3.24596
C         -1.99079       -1.65778        2.61579
C         -1.80674       -1.65103        1.25256
C         -2.02887       -2.78585        0.50766
C         -2.43060       -3.95083        1.13394
H         -2.92284       -4.87415        2.99390
H         -2.53512       -2.83486        4.31409
H         -1.81236       -0.75548        3.17908
H         -1.89655       -2.74774       -0.56180
H         -2.60491       -4.84211        0.55385
C          4.10569       -0.23929       -1.49300
H          3.87762        0.83430        0.36361
C          4.46689       -1.22453        0.82322
H          4.64111       -0.82822        1.83433
C          3.66071       -2.54667        0.91993
H          5.46479       -1.40788        0.39875
C          1.64237       -2.27045        2.45872
H          1.57119       -2.98465        0.42100
H          3.99407       -3.14256        1.78174
H          3.86706       -3.16511        0.03436
H          2.19308       -1.54211        3.05729
H          0.58627       -1.99922        2.50479
H          1.76034       -3.24816        2.93182
H          3.91404       -1.23494       -1.89599
H          3.53568        0.47147       -2.09289
H          5.16628       -0.02302       -1.63838
Fe         0.80016        2.50227        0.88024
C          1.28774        2.23959       -1.14307
C          2.16463        3.19748       -0.49890
C          1.34708        4.28547        0.01024
C         -0.03854        3.98620       -0.30715
C         -0.07136        2.72044       -1.01606
H          1.58931        1.34098       -1.68289
H          3.25427        3.13838       -0.45083
H          1.71115        5.17723        0.52553
H         -0.89977        4.61894       -0.08195
H         -0.95541        2.23957       -1.43798
