59
-75.79898987
Cl         1.57569        0.32583        2.37000
P          1.47906        0.06259       -0.82842
P         -1.65860       -0.22889       -0.76550
C          0.50359        0.07853       -2.39748
H          0.19915        1.11002       -2.59383
H          1.14902       -0.23766       -3.22298
C         -0.70061       -0.80636       -2.23371
H         -0.40197       -1.84365       -2.06205
H         -1.35375       -0.78885       -3.11163
C          2.72066       -1.30786       -0.80524
H          2.81739       -1.66068       -1.83916
C          2.59991        1.51987       -0.60454
H          2.43429        1.87681        0.41939
C         -3.16400       -1.23952       -0.39823
H         -3.25699       -1.26119        0.69451
C         -2.45815        1.39723       -1.14361
H         -2.25483        1.60735       -2.20054
C          4.01059       -0.60136       -0.35132
H          4.09966       -0.69729        0.73966
H          4.89426       -1.10946       -0.76660
C          4.00482        0.90422       -0.73586
H          4.34506        1.01678       -1.77445
H          4.72802        1.46616       -0.12542
C         -4.29239       -0.38886       -1.00681
H         -4.42763       -0.67950       -2.05798
H         -5.25023       -0.61122       -0.51169
C         -3.95907        1.12686       -0.92199
H         -4.24254        1.50349        0.07026
H         -4.56394        1.70217       -1.63897
C          2.27226       -2.44565        0.10318
H          1.26787       -2.77158       -0.19898
H          2.15466       -2.05813        1.12395
C          2.30368        2.63417       -1.60108
H          2.44289        2.24536       -2.61847
H          1.24098        2.90409       -1.53654
C         -3.06815       -2.66099       -0.93759
H         -4.05822       -3.13481       -0.88271
H         -2.82672       -2.62029       -2.00760
C         -1.87919        2.49643       -0.26129
H         -2.08245        2.24893        0.78952
H         -0.78405        2.48986       -0.34909
C          3.22964       -3.62785        0.09624
H          2.88581       -4.43693        0.74469
H          4.22402       -3.33504        0.43785
H          3.34234       -4.03743       -0.90936
C          3.16599        3.86887       -1.38476
H          4.22715        3.63561       -1.48858
H          3.02339        4.27734       -0.38249
H          2.93356        4.66181       -2.09933
C         -2.04597       -3.50332       -0.18918
H         -2.31256       -3.60109        0.86493
H         -1.05587       -3.04786       -0.22249
H         -1.96025       -4.51078       -0.60247
C         -2.42122        3.87791       -0.59562
H         -1.98964        4.65247        0.04243
H         -2.20331        4.14588       -1.63123
H         -3.50505        3.91931       -0.47386
Cl        -1.64392       -0.40213        2.44350
Pd        -0.05459       -0.10405        0.89230
