111
-148.55703802
P         -2.61001        1.94896        0.24014
P          0.14549        0.43153        0.51053
C         -1.79770        1.84748        1.85844
C         -0.57256        1.22452        1.96220
C         -3.48147        3.56272       -0.00398
C         -2.70295        4.47826       -0.92336
C         -2.39699        2.37798        2.98288
H         -3.36373        2.84700        2.90091
C         -1.76010        2.28952        4.20883
H         -2.22692        2.70373        5.08753
C         -0.52987        1.66816        4.30881
H         -0.03621        1.59649        5.26398
C          0.06370        1.12843        3.18199
H          1.01496        0.62338        3.24507
Pd        -1.00736        1.31987       -1.29109
Cl        -2.41579        1.86311       -2.94957
Cl         0.65109        0.64103       -2.64859
C         -4.85690        3.12673       -0.54243
C         -4.02357        0.77216        0.02966
H         -1.70870        4.69067       -0.52310
H         -2.56940        4.02052       -1.90452
H         -3.22009        5.42913       -1.07159
H         -4.82021        3.12454       -1.64062
H         -5.62679        3.86603       -0.27366
H         -3.86620        0.28068       -0.93993
C         -5.24550        1.70794       -0.03618
C         -4.07151       -0.24766        1.14677
H         -3.58757        4.01496        0.99018
H         -5.68537        1.78575        0.96761
H         -6.03106        1.26719       -0.66865
H         -4.92448       -0.92133        1.03695
H         -3.16424       -0.85414        1.16713
H         -4.15857        0.24425        2.11726
C         -1.51806       -3.79715        0.22373
C         -0.96325       -3.17427       -0.92559
C         -0.46154       -1.89235       -0.79279
C         -0.42548       -1.26421        0.42369
C         -0.83623       -1.91223        1.55866
C         -1.35029       -3.19711        1.50066
O         -2.31378       -4.96315        0.08402
C         -0.89172       -3.82707       -2.31552
H         -0.11115       -1.35048       -1.65460
H         -0.77513       -1.39097        2.49852
C         -1.70974       -3.88700        2.82709
C          4.66656        0.79054        0.11663
C          4.02200       -0.43058       -0.20611
C          2.64561       -0.49828       -0.07365
C          1.92689        0.55826        0.42048
C          2.55561        1.70587        0.82751
C          3.93173        1.83740        0.73082
O          6.03502        0.98127       -0.21207
C          4.77718       -1.65803       -0.73879
H          2.10901       -1.38000       -0.37681
H          1.95011        2.50705        1.21514
C          4.60104        3.11525        1.26088
C          0.52859       -3.64299       -2.89479
C         -1.16655       -5.33978       -2.26841
C         -1.90769       -3.14698       -3.24890
C         -1.92616       -5.40103        2.65989
C         -0.54868       -3.70520        3.82955
C         -2.98105       -3.24646        3.40909
C         -3.68342       -4.66698       -0.13406
H          0.76985       -2.59314       -3.05242
H          1.27483       -4.06340       -2.22162
H          0.62361       -4.14564       -3.85686
H         -0.50144       -5.82907       -1.55771
H         -2.18974       -5.54539       -1.96318
H         -1.01608       -5.79699       -3.24610
H         -2.92349       -3.26318       -2.87584
H         -1.70578       -2.07961       -3.33402
H         -1.86579       -3.57654       -4.24935
H         -2.79670       -5.60925        2.04246
H         -1.06144       -5.86252        2.18433
H         -2.08295       -5.88441        3.62391
H         -0.40078       -2.65917        4.09271
H         -0.74522       -4.24755        4.75406
H          0.38357       -4.08244        3.41006
H         -3.24843       -3.70681        4.35986
H         -2.83640       -2.18046        3.58235
H         -3.82537       -3.36126        2.73207
H         -4.08737       -4.11756        0.71463
H         -3.79651       -4.05870       -1.03008
H         -4.23751       -5.59774       -0.25727
C          6.24579        1.52461       -1.50938
C          4.81100       -1.60149       -2.27374
C          6.20848       -1.72192       -0.17589
C          4.06753       -2.96229       -0.30829
C          6.02125        2.82364        1.77905
C          4.65166        4.16583        0.14138
C          3.80036        3.69697        2.44830
H          5.31908       -0.70599       -2.62371
H          5.32961       -2.46674       -2.68573
H          3.79999       -1.58772       -2.68047
H          6.71874       -2.62699       -0.50448
H          6.80285       -0.87279       -0.50321
H          6.19260       -1.71786        0.91347
H          3.10036       -3.07565       -0.79487
H          4.66383       -3.83405       -0.57673
H          3.91272       -2.98145        0.77016
H          6.67418        2.48536        0.97832
H          6.47024        3.71562        2.21525
H          5.99908        2.04686        2.54266
H          5.22909        3.80917       -0.70808
H          3.64825        4.39838       -0.21443
H          5.10804        5.09043        0.49389
H          2.83148        4.08080        2.13254
H          4.33785        4.52600        2.90814
H          3.63644        2.93883        3.21373
H          6.82555        0.82473       -2.11082
H          5.29078        1.71971       -1.99899
H          6.81037        2.45341       -1.42897
