105
-153.05910666
Cl         0.33975        3.59042        1.67161
Pd        -0.09201        1.95569        0.18018
P         -0.74353        0.23281       -1.31961
N          0.07837       -1.19805       -1.96989
C          0.16775       -2.52216       -1.55213
C         -0.14041       -2.97894       -0.24213
C          0.21108       -4.29449        0.13247
C          0.11578       -4.69292        1.58847
C          0.95796       -5.92661        1.94492
C          0.70907       -7.05406        0.93879
C          1.08310       -6.61304       -0.48584
C          0.71540       -5.18614       -0.81689
C          0.92260       -4.74243       -2.11640
C          0.67706       -3.44077       -2.46954
H          0.89333       -3.10651       -3.46954
H          1.31759       -5.43105       -2.84425
H          2.16300       -6.73321       -0.63442
H          1.26025       -7.96066        1.22591
H          2.02132       -5.65639        1.93225
H          0.41950       -3.83936        2.20798
C         -0.73660       -2.09738        0.79680
C          0.08757       -1.11221        1.39971
C         -0.37295       -0.43137        2.52665
C         -1.62012       -0.69529        3.03104
C         -2.46056       -1.62906        2.43094
C         -3.81920       -1.86942        3.03402
C         -4.41083       -3.23042        2.63965
C         -4.36071       -3.41321        1.11977
C         -2.92134       -3.31806        0.58293
C         -2.02890       -2.32848        1.30040
H         -2.45818       -4.30894        0.61760
H         -4.97753       -2.63924        0.64929
H         -5.43848       -3.33715        3.01515
H         -4.49268       -1.06497        2.71607
H         -1.97099       -0.15981        3.89681
H          0.25121        0.31878        2.97632
N          1.25092       -0.75583        0.72385
P          1.81705        0.85394        0.96349
C          2.92760        1.32795       -0.35520
C          3.19517        2.66127       -0.55557
C          3.96477        3.04937       -1.63711
C          4.46062        2.10516       -2.52599
C          4.17658        0.76322       -2.30553
C          3.40714        0.37626       -1.22328
H          3.16785       -0.66212       -1.06064
H          4.55346        0.02339       -2.99078
C          5.27827        2.53505       -3.69408
H          4.17410        4.09188       -1.80569
H          2.76824        3.39040        0.11540
C          2.61519        0.93072        2.56531
C          3.40567       -0.12921        2.94046
C          4.03493       -0.11433        4.17307
C          3.86862        0.95946        5.03780
C          3.07086        2.02269        4.63639
C          2.44421        2.00424        3.40525
H          1.81221        2.81839        3.09410
H          2.94312        2.86481        5.29494
C          4.56486        0.98800        6.35397
H          4.65934       -0.93930        4.47067
H          3.51842       -0.96607        2.26871
H          1.10090       -0.86259       -0.27906
H          0.27528       -1.01076       -2.94525
C         -0.60887        1.40234       -2.68175
C         -1.71297        1.90641       -3.32635
C         -1.55085        2.81320       -4.35732
C         -0.28200        3.21544       -4.75322
C          0.81991        2.70140       -4.08369
C          0.65487        1.79448       -3.05306
H          1.50864        1.40509       -2.52304
H          1.80800        3.02084       -4.36746
C         -0.10799        4.21623       -5.84192
H         -2.41256        3.22041       -4.85808
H         -2.69738        1.60096       -3.01271
C         -2.48183       -0.16465       -1.14463
C         -3.05403       -0.94910       -2.11756
C         -4.40826       -1.22976       -2.06869
C         -5.19564       -0.72748       -1.04175
C         -4.59898        0.06358       -0.06941
C         -3.24545        0.33975       -0.11920
H         -2.78369        0.95652        0.63439
H         -5.20305        0.46951        0.72384
C         -6.65844       -1.00365       -1.00439
H         -4.86225       -1.83818       -2.83201
H         -2.43720       -1.33477       -2.91418
Cl        -1.98146        3.08001       -0.31946
H          0.61210       -7.27559       -1.22321
H          0.75012       -6.26299        2.97057
H         -0.35155       -7.33435        0.96713
H         -0.93020       -4.88353        1.84878
H         -4.82216       -4.36727        0.82879
H         -2.93485       -3.05441       -0.48174
H         -3.75040       -1.78311        4.12596
H         -3.83439       -4.03057        3.12091
H          4.73445        3.25807       -4.30379
H          6.20777        3.00238       -3.36602
H          5.53676        1.68935       -4.33270
H          5.55308        1.44013        6.25949
H          3.99911        1.56552        7.08640
H          4.69198       -0.01892        6.75400
H         -0.10569        5.22971       -5.43854
H          0.83335        4.06239       -6.37140
H         -0.91426        4.14673       -6.57346
H         -6.88033       -1.99983       -1.38988
H         -7.04471       -0.94952        0.01447
H         -7.20439       -0.27881       -1.60967
