111
-148.55428269
P         -2.24085        2.22714        1.33020
P          0.06272        0.22378        0.49164
C         -1.19952        1.47939        2.60500
C         -0.22526        0.57770        2.23838
C         -2.32211        4.06528        1.50303
C         -1.50818        4.74063        0.42068
C         -1.39957        1.77941        3.93699
H         -2.15958        2.49237        4.21313
C         -0.62808        1.15925        4.90462
H         -0.78282        1.39141        5.94565
C          0.33254        0.23631        4.53761
H          0.92718       -0.25366        5.29095
C          0.53207       -0.05794        3.20062
H          1.27102       -0.78420        2.89956
Pd        -1.55743        1.39089       -0.71097
Cl        -3.28865        2.51537       -1.58891
Cl        -0.87186        0.31312       -2.55638
C         -3.83354        4.35354        1.44068
C         -4.03514        1.80080        1.52509
H         -0.45798        4.44208        0.46898
H         -1.88058        4.46824       -0.56874
H         -1.55681        5.82894        0.50429
H         -4.10564        4.57970        0.40044
H         -4.07500        5.26185        2.01346
H         -4.38201        1.50752        0.52530
C         -4.66990        3.14155        1.93983
C         -4.24993        0.67496        2.51545
H         -1.92436        4.30194        2.49854
H         -4.74338        3.17451        3.03547
H         -5.70598        3.20295        1.57379
H         -3.69301       -0.21973        2.23050
H         -3.91150        0.96304        3.51169
H         -5.30621        0.40713        2.59235
C         -1.05405       -4.10862       -0.33632
C         -2.06398       -3.14459       -0.08464
C         -1.67387       -1.84640        0.19906
C         -0.35491       -1.47930        0.14730
C          0.61480       -2.37936       -0.20823
C          0.29443       -3.69630       -0.49227
O         -1.38506       -5.48858       -0.39095
C         -3.56291       -3.48157       -0.10837
H         -2.40134       -1.09753        0.46025
H          1.63335       -2.03658       -0.25902
C          1.40654       -4.65681       -0.94151
C          4.36275        1.01173       -0.82279
C          4.00845        1.19497        0.53800
C          2.69735        0.95520        0.91355
C          1.74390        0.61260       -0.01059
C          2.06313        0.54699       -1.34149
C          3.35159        0.77978       -1.78892
O          5.72922        1.02461       -1.21007
C          5.03161        1.60596        1.60849
H          2.40600        1.02595        1.94534
H          1.27629        0.30966       -2.03436
C          3.63408        0.75563       -3.29943
C         -4.02276       -3.85427        1.30887
C         -4.38255       -2.26366       -0.59469
C         -3.85891       -4.63583       -1.08310
C          2.50450       -3.89264       -1.71602
C          2.04004       -5.31408        0.29360
C          0.85687       -5.73572       -1.89234
C         -1.34554       -6.14004        0.87236
H         -3.48273       -4.72158        1.68204
H         -3.84605       -3.03099        2.00064
H         -5.08722       -4.08679        1.32557
H         -5.42757       -2.53430       -0.74332
H         -4.36407       -1.44843        0.12633
H         -3.99499       -1.88997       -1.54216
H         -4.92955       -4.82695       -1.15116
H         -3.49226       -4.39779       -2.08104
H         -3.38012       -5.55801       -0.76361
H          3.22971       -4.58432       -2.14408
H          2.06852       -3.31742       -2.53212
H          3.05611       -3.21052       -1.07072
H          2.84378       -5.99161        0.00648
H          2.45621       -4.55959        0.96081
H          1.30441       -5.88441        0.85615
H          1.65718       -6.37444       -2.26519
H          0.13320       -6.37408       -1.39146
H          0.36208       -5.27681       -2.74765
H         -1.03835       -5.44102        1.65127
H         -2.33164       -6.53823        1.11068
H         -0.64163       -6.97122        0.83227
C          6.34886       -0.25527       -1.18799
C          6.11289        2.52810        1.01629
C          4.34492        2.39153        2.74904
C          5.67843        0.34560        2.20262
C          3.96969       -0.67935       -3.73220
C          2.39504        1.23179       -4.09221
C          4.79009        1.70495       -3.66331
H          6.80077        2.87184        1.78839
H          6.69979        2.01524        0.25830
H          5.65889        3.40298        0.55214
H          5.08446        2.79462        3.44059
H          3.76819        3.22655        2.35210
H          3.67681        1.75797        3.33063
H          6.19638       -0.22900        1.43850
H          6.40080        0.60494        2.97617
H          4.92321       -0.30120        2.64872
H          4.83866       -1.05977       -3.20064
H          3.13488       -1.34753       -3.52428
H          4.18028       -0.72602       -4.80031
H          2.04759        2.19721       -3.72551
H          2.63084        1.34063       -5.15048
H          1.57194        0.52260       -4.02031
H          4.94605        1.73761       -4.74130
H          5.72368        1.38759       -3.20573
H          4.57743        2.71697       -3.32044
H          5.64196       -1.01516       -0.85222
H          6.70607       -0.50684       -2.18642
H          7.20626       -0.23393       -0.51547
