45
-71.81467295
C          0.33570        0.56486        2.48421
P          0.95655        0.60172        0.76852
P         -1.63177        0.27012       -1.04973
C         -2.43056       -0.04096       -2.65900
Cl         1.76606       -2.36084        0.43579
H          0.69745        1.43209        3.02914
H         -1.70898        0.08776       -3.46070
Cl        -1.13721       -2.82072       -1.37465
C          0.29618        2.01681       -0.13863
C         -0.80924        1.87439       -0.94998
C         -1.31337        2.96288       -1.63152
C         -0.69697        4.19587       -1.50942
C          0.41503        4.33671       -0.70188
C          0.91242        3.24461       -0.01280
H         -2.18899        2.84472       -2.24895
H         -1.08717        5.04707       -2.04272
H          0.89493        5.29680       -0.60668
H          1.77931        3.33886        0.62162
Pd         0.04655       -1.18460       -0.39864
H         -3.25559        0.64993       -2.80688
H          0.67569       -0.33847        2.98260
H         -2.81276       -1.05734       -2.68842
C         -4.43918       -0.24037        2.48734
C         -3.96013        1.01499        2.16653
C         -3.11629        1.17427        1.08214
C         -2.76360        0.07953        0.32719
C         -3.22947       -1.17394        0.64886
C         -4.07410       -1.33696        1.73110
H         -5.09622       -0.36517        3.33253
H         -4.24104        1.86912        2.76052
H         -2.72684        2.14573        0.82369
H         -2.90367       -2.01933        0.06432
H         -4.43982       -2.31787        1.98655
C          5.48940        0.49974        0.39557
C          4.91171        0.41741        1.64717
C          3.53485        0.45220        1.77578
C          2.74733        0.57140        0.65335
C          3.31794        0.65083       -0.59656
C          4.69496        0.61601       -0.72777
H          6.56209        0.47006        0.29512
H          5.53207        0.32240        2.52324
H          3.07337        0.38159        2.74720
H          2.68248        0.73758       -1.46429
H          5.14481        0.67640       -1.70511
H         -0.75040        0.57725        2.48398
