115
-277.93619356
P         -1.51014        0.63184        0.22089
P          2.11081        0.15145       -0.03307
C         -2.50744        2.12368        0.10516
C         -3.79677        2.08989        0.59414
H         -4.24635        1.14434        0.85528
C         -4.44704        3.27647        0.87565
H         -5.40122        3.26917        1.37738
C         -3.81197        4.49045        0.65456
C         -2.57418        4.50564        0.03341
H         -2.08761        5.45663       -0.11891
C         -1.91390        3.32281       -0.22639
H         -0.90993        3.34128       -0.61809
C         -2.49501       -0.71605       -0.46331
C         -2.81006       -1.81738        0.30010
H         -2.49378       -1.87019        1.32834
C         -3.52673       -2.85663       -0.25525
H         -3.77024       -3.73459        0.32377
C         -3.94047       -2.79178       -1.57262
C         -3.63480       -1.67664       -2.32624
H         -3.97155       -1.63625       -3.35014
C         -2.90688       -0.64495       -1.77280
H         -2.64771        0.21620       -2.36590
C         -1.15379        0.35978        2.00326
C         -0.41879       -0.79178        2.19623
H         -0.10225       -1.35922        1.34354
C          0.08400       -1.15039        3.44406
C         -0.37029       -0.44146        4.54825
H         -0.03466       -0.72122        5.53286
C         -1.11237        0.70893        4.37474
H         -1.34996        1.31513        5.23263
C         -1.41002        1.19674        3.10124
C          1.94012        0.86513        1.64016
C          1.23353        2.05537        1.64456
H          0.82549        2.43027        0.72130
C          0.89765        2.69748        2.83695
C          1.50216        2.24446        4.00377
H          1.29231        2.74464        4.93445
C          2.22614        1.06919        4.00633
H          2.57882        0.66809        4.94129
C          2.35521        0.29878        2.85134
C         -1.65793        2.68491        2.99398
H         -2.27447        3.00705        3.84185
H         -2.29280        2.89018        2.13683
C         -0.34467        3.54721        2.91824
H         -0.37958        4.23108        2.06394
H         -0.27171        4.20555        3.79119
C          1.34185       -1.97528        3.52168
H          1.19997       -2.89567        2.94560
H          1.48031       -2.31203        4.55474
C          2.60695       -1.18083        3.02492
H          3.44489       -1.32493        3.71562
H          2.95855       -1.58254        2.07719
C          1.94254       -1.64261       -0.19576
C          3.02683       -2.45149        0.06908
C          0.70773       -2.20314       -0.44233
C          2.83841       -3.80691        0.25549
C          0.51970       -3.55559       -0.26553
C          1.57033       -4.35493        0.15350
C          3.63669        0.70181       -0.80338
C          4.20561       -0.00812       -1.83496
C          4.22872        1.85344       -0.34126
C          5.38437        0.43304       -2.40222
H          3.72447       -0.90124       -2.20015
C          5.40649        2.29304       -0.90826
H          3.77345        2.40151        0.46795
C          5.99042        1.58599       -1.94239
H          5.85712       -0.11380       -3.20281
H          5.89476        3.18373       -0.54695
Pd         0.27563        0.86602       -1.30283
Cl        -1.30179        1.85734       -2.57811
Cl         1.78803        1.40231       -2.88164
H         -0.46421       -3.98758       -0.35160
H         -0.13754       -1.57999       -0.67766
H          3.64658       -4.43856        0.59031
H          4.00263       -2.01359        0.20979
C         -5.76866        5.78530        1.62206
C         -4.23077        5.73952        1.39011
C         -3.41564        5.74439        2.72362
F         -6.36447        5.61097        0.43315
F         -6.12944        4.80103        2.45687
F         -6.10005        6.98052        2.13471
F         -3.88531        6.82331        0.69093
F         -3.64446        4.60051        3.38216
F         -2.11604        5.80474        2.40083
F         -3.76491        6.80359        3.46575
C         -4.01463       -5.26840       -1.94509
C         -4.73708       -3.91187       -2.19047
C         -6.17893       -3.89035       -1.60800
F         -4.59559       -6.21934       -2.69314
F         -2.73185       -5.11091       -2.30746
F         -4.08661       -5.58319       -0.64352
F         -4.82827       -3.73572       -3.51166
F         -6.73761       -2.72284       -1.96145
F         -6.88110       -4.91416       -2.11668
F         -6.11710       -3.97580       -0.27106
C          7.35090        3.54401       -2.75599
C          7.32218        2.00604       -2.51077
C          8.44048        1.54053       -1.53442
F          6.26911        3.85863       -3.48411
F          7.30945        4.18803       -1.58134
F          8.46826        3.86255       -3.42738
F          7.52942        1.40455       -3.68541
F          8.38208        0.20194       -1.46782
F          9.63539        1.93102       -2.00211
F          8.21173        2.06323       -0.32070
C          0.96449       -5.32034        2.31898
C          1.29692       -5.67189        0.83525
C          0.14652       -6.45155        0.13617
F          0.66088       -6.43612        2.99555
F          2.04793       -4.73117        2.84276
F         -0.05450       -4.44994        2.34376
F          2.38981       -6.43863        0.82113
F         -1.00698       -5.78558        0.29125
F          0.45082       -6.54110       -1.16747
F          0.05720       -7.67740        0.67596
