72
-108.39442616
Cl        -2.04396       -0.15362        2.79277
Cl         0.95277       -1.18165        2.67660
P          1.22162       -0.97322       -0.29483
P         -2.22411        0.15097       -0.39146
C         -3.40289       -1.33336       -0.37280
C         -4.17625       -1.38081        0.94190
C         -4.39163       -1.25430       -1.54508
C         -3.13045        1.79344       -0.05944
C         -4.49822        1.79039       -0.73356
C         -1.42272        0.39562       -2.08001
C         -1.30591       -0.83056       -2.96973
C          1.15174        0.35331       -1.53828
C         -0.05630        1.05544       -1.97619
C          0.39117        2.20187       -2.77157
C          1.83753        2.16493       -2.87907
C          2.30382        1.03139       -2.10391
C         -2.54818       -2.59330       -0.47289
H         -3.50131       -1.47039        1.79149
H         -4.79027       -0.49401        1.08422
H         -5.26741       -0.65779       -1.29261
H         -4.75758       -2.24740       -1.81123
C         -3.28685        2.01323        1.43964
H         -4.95427        2.78021       -0.67794
H         -5.18276        1.09856       -0.24671
H         -2.10398        1.09932       -2.57218
H         -2.24899       -1.34898       -3.12835
H         -0.59738       -1.53814       -2.54812
H         -0.91848       -0.55832       -3.95349
H         -0.26561        2.87805       -3.32244
H          2.46237        2.86254       -3.44113
Pd        -0.52086       -0.37642        1.16538
H          3.34283        0.73875       -1.93738
C         -2.29740        2.92921       -0.65001
H         -4.41695        1.52408       -1.78776
H         -2.31638        2.04808        1.93305
H         -3.79680        2.95592        1.64408
H         -3.86695        1.21726        1.90357
H         -2.33605        2.93667       -1.73911
H         -2.66242        3.89972       -0.30922
H         -1.25751        2.83778       -0.35197
H         -4.84263       -2.24458        0.96286
H         -3.94635       -0.81035       -2.43265
H         -3.17227       -3.48825       -0.44116
H         -1.97599       -2.62964       -1.39666
H         -1.84927       -2.65464        0.36149
C          2.92799       -1.05744        0.31070
C          3.44033       -2.11583        1.01874
C          4.77081       -1.81162        1.30657
C          5.01748       -0.57741        0.75791
O          3.89525       -0.10376        0.14188
H          2.90605       -3.00818        1.30115
H          5.46774       -2.42536        1.85356
H          5.95874       -0.04334        0.79964
C          0.79475       -2.61711       -0.89603
C          0.53179       -3.64363       -0.02380
C          0.24261       -4.77114       -0.79375
C          0.34277       -4.38318       -2.10771
O          0.67890       -3.06140       -2.18511
H          0.54217       -3.57101        1.05246
H         -0.00874       -5.75333       -0.42824
H          0.18089       -5.01957       -2.96888
Fe         1.24441        2.28160       -0.91563
C          2.90623        2.65211        0.24796
C          1.87671        1.98491        1.01877
C          0.68874        2.81197        1.00454
C          0.96280        3.96302        0.16221
C          2.33949        3.87407       -0.29267
H          3.92397        2.28594        0.09720
H          1.99046        1.04883        1.57029
H         -0.21939        2.62465        1.57940
H          0.27941        4.79370       -0.03085
H          2.86222        4.60665       -0.91226
