111
-148.55030991
P         -2.62013        2.16498        0.57427
P          0.09261        0.52842        0.36917
C         -1.48968        2.09748        1.99367
C         -0.29552        1.41853        1.88521
C         -3.54205        3.77109        0.54650
C         -3.41174        4.46147       -0.79303
C         -1.82385        2.70972        3.18506
H         -2.76560        3.22599        3.27349
C         -0.95570        2.64483        4.26142
H         -1.21694        3.12264        5.19152
C          0.24270        1.96675        4.14670
H          0.91709        1.91398        4.98551
C          0.57231        1.34764        2.95443
H          1.49643        0.80046        2.85052
Pd        -1.38955        1.35460       -1.20967
Cl        -3.09157        1.86844       -2.56848
Cl         0.02222        0.53137       -2.75543
C         -4.98442        3.34754        0.89510
C         -4.02901        0.97373        0.71247
H         -3.85269        3.85209       -1.58296
H         -3.92389        5.42658       -0.79915
H         -2.36430        4.63127       -1.05311
H         -5.69533        4.02360        0.39797
H         -5.16177        3.47345        1.97333
H         -3.91633        0.25141       -0.10790
C         -5.26516        1.87084        0.49741
C         -4.00278        0.26435        2.04853
H         -3.10969        4.39854        1.33739
H         -6.11450        1.46965        1.06940
H         -5.57333        1.83235       -0.55787
H         -3.06494       -0.27778        2.18744
H         -4.09245        0.98094        2.86712
H         -4.82417       -0.45028        2.14090
C         -1.05371       -3.86622        0.68771
C         -1.01593       -3.07313        1.86372
C         -0.66664       -1.73826        1.74417
C         -0.43440       -1.17786        0.51570
C         -0.57579       -1.91460       -0.62958
C         -0.92716       -3.25166       -0.58414
O         -1.17107       -5.27819        0.78593
C         -1.29558       -3.65261        3.25916
H         -0.54900       -1.11985        2.61622
H         -0.38688       -1.42362       -1.56822
C         -1.12723       -4.01100       -1.90432
C          4.51140        0.65427       -0.72211
C          3.70216        1.79759       -0.94832
C          2.36994        1.74717       -0.57007
C          1.82682        0.59720       -0.06137
C          2.57862       -0.54240        0.05995
C          3.91560       -0.56069       -0.29829
O          5.91961        0.73460       -0.88900
C          4.25142        3.08146       -1.58991
H          1.73168        2.60762       -0.67509
H          2.09985       -1.42938        0.43722
C          4.69120       -1.88491       -0.21571
C         -2.32598       -4.79442        3.18966
C          0.01954       -4.16227        3.86792
C         -1.88585       -2.57278        4.19414
C          0.22319       -4.56986       -2.37761
C         -2.14840       -5.15126       -1.74207
C         -1.68007       -3.06372       -2.99447
C          0.07716       -5.95698        0.85113
H         -2.57398       -5.15977        4.18590
H         -3.24524       -4.45306        2.71482
H         -1.94709       -5.63652        2.61589
H          0.46243       -4.94171        3.25250
H          0.74487       -3.35308        3.95048
H         -0.14422       -4.57229        4.86418
H         -2.18084       -3.00830        5.14856
H         -1.16480       -1.78638        4.41175
H         -2.76958       -2.11667        3.74971
H          0.64760       -5.25106       -1.64375
H          0.11425       -5.11114       -3.31701
H          0.93916       -3.76345       -2.53426
H         -1.79462       -5.90505       -1.04334
H         -3.09592       -4.76658       -1.36633
H         -2.33689       -5.64697       -2.69401
H         -1.94659       -3.62054       -3.89239
H         -2.57298       -2.54750       -2.64290
H         -0.94704       -2.31465       -3.28965
H          0.12735       -6.54164        1.76957
H          0.16774       -6.64042        0.00707
H          0.90097       -5.24235        0.82986
C          6.62125        1.11510        0.28772
C          3.13786        3.82088       -2.36631
C          4.78698        4.01183       -0.49149
C          5.36548        2.76069       -2.60312
C          5.30514       -2.02897        1.18475
C          3.74813       -3.08456       -0.46824
C          5.79368       -1.94819       -1.28822
H          2.64531        3.14966       -3.06948
H          2.38296        4.23029       -1.69680
H          3.54953        4.65598       -2.93257
H          5.17220        4.93779       -0.91770
H          3.99797        4.26772        0.21529
H          5.59122        3.53918        0.06730
H          5.70706        3.66317       -3.10935
H          6.22716        2.31095       -2.11601
H          5.00663        2.06262       -3.35870
H          5.99157       -1.21338        1.39970
H          4.52816       -2.01849        1.94885
H          5.85536       -2.96520        1.27541
H          4.31368       -4.01316       -0.54176
H          3.02945       -3.21217        0.34001
H          3.19733       -2.95372       -1.39923
H          5.37078       -1.80136       -2.28149
H          6.30000       -2.91302       -1.27387
H          6.54595       -1.17951       -1.12951
H          5.92340        1.28841        1.10786
H          7.32174        0.32815        0.56660
H          7.18987        2.02483        0.09557
