72
-98.09880362
Fe         0.00553        2.75489       -0.03300
P          1.87248       -0.09111        0.02728
P         -1.87428       -0.10408       -0.03263
C          1.43677        1.56407        0.68685
C          0.45242        1.83768        1.72064
C          0.39790        3.27529        1.91924
C          1.36704        3.88858        1.02950
C          2.02516        2.83088        0.28183
C         -1.41952        1.53730       -0.71879
C         -1.99099        2.81859       -0.33456
C         -1.33627        3.85794       -1.11174
C         -0.37043        3.22043       -1.98834
C         -0.42709        1.78849       -1.75041
C          3.25973       -0.79344        1.02909
C          4.49039       -0.23890        0.29215
C          2.76264        0.07903       -1.59158
C          4.24636       -0.16978       -1.24025
C         -3.27192       -0.79678       -1.02929
C         -4.49576       -0.21853       -0.29938
C         -2.76769        0.11513        1.58008
C         -4.25105       -0.13790        1.23223
H         -0.14309        1.09526        2.25170
H         -0.24452        3.80017        2.63002
H          1.58371        4.95659        0.95504
H          2.81927        2.95987       -0.45653
H         -2.78703        2.96808        0.39816
H          0.15978        1.03177       -2.27064
Cl         1.57346       -3.09805       -0.24192
Cl        -1.63462       -3.02360        0.29332
Pd         0.01140       -1.49596        0.03280
H          3.21516       -1.88366        0.92510
C          3.17793       -0.40480        2.50018
H          2.60324        1.11148       -1.92402
C          2.21791       -0.90034       -2.62554
H          5.38149       -0.84238        0.52513
H          4.70582        0.76763        0.67834
H          4.88532        0.59690       -1.70291
H          4.55980       -1.11983       -1.69363
H         -1.55048        4.92811       -1.06197
H          0.27256        3.72557       -2.71297
H          4.12885       -0.65247        2.99218
H          2.43462       -1.92321       -2.29009
H         -3.24460       -1.88650       -0.91614
C         -3.18084       -0.42400       -2.50383
H         -2.60621        1.15684        1.88102
C         -2.22908       -0.83122        2.64718
H         -5.39449       -0.81270       -0.52675
H         -4.69781        0.78687       -0.69543
H         -4.89026        0.63171        1.68966
H         -4.56295       -1.08496        1.69283
H         -4.13366       -0.66283       -2.99652
H         -1.13476       -0.76823        2.67417
C          2.02527       -1.08156        3.22357
H          1.07325       -0.84233        2.75102
H          2.12719       -2.16816        3.19968
H          1.95958       -0.77783        4.27071
C          2.77979       -0.66844       -4.01998
H          3.86684       -0.76457       -4.03209
H          2.37932       -1.37947       -4.74615
H          2.54200        0.33530       -4.37743
C         -2.03545       -1.12522       -3.21551
H         -1.08269       -0.90000       -2.73747
H         -2.15644       -2.20971       -3.18550
H         -1.95748       -0.82929       -4.26404
C         -2.80036       -0.55687        4.02998
H         -2.56730        0.45827        4.35706
H         -3.88724       -0.65546        4.03817
H         -2.40284       -1.24358        4.78077
H          3.08942        0.68704        2.57388
H          1.12333       -0.83987       -2.64730
H         -3.07612        0.66561       -2.58830
H         -2.44282       -1.86417        2.34250
