111
-148.55548450
P         -1.63979        2.75522       -0.23964
P         -0.51205       -0.11683        0.49937
C         -1.76440        2.14271        1.46475
C         -1.33242        0.86862        1.76912
C         -0.47565        4.18681       -0.34494
C          0.75818        3.81286       -1.13842
C         -2.26281        2.95555        2.46248
H         -2.56345        3.96329        2.22652
C         -2.35084        2.47981        3.75944
H         -2.74375        3.11302        4.53809
C         -1.93011        1.19801        4.05840
H         -1.99376        0.82992        5.06916
C         -1.40950        0.39291        3.06116
H         -1.04641       -0.59848        3.28264
Pd        -1.18946        0.86740       -1.47878
Cl        -1.64213        2.01712       -3.34676
Cl        -0.65862       -1.08189       -2.47200
C         -1.33155        5.29514       -0.99072
C         -3.19014        3.54498       -0.87125
H          1.44469        4.65763       -1.23177
H          1.29849        2.98799       -0.66966
H          0.48583        3.49221       -2.14604
H         -1.10565        5.33136       -2.06529
H         -1.04215        6.28107       -0.59673
H         -3.27380        3.23333       -1.92095
C         -2.85480        5.04541       -0.79562
C         -4.42083        3.12081       -0.09831
H         -0.21696        4.44744        0.68979
H         -3.17017        5.43149        0.18344
H         -3.44368        5.60657       -1.53733
H         -4.54739        2.03598       -0.12090
H         -4.35174        3.41996        0.94785
H         -5.32492        3.57602       -0.50902
C         -0.99495       -4.62817        0.87823
C          0.30167       -4.06561        0.76382
C          0.40985       -2.69029        0.64968
C         -0.69579       -1.88323        0.71112
C         -1.94129       -2.41404        0.92172
C         -2.12021       -3.78198        1.05374
O         -1.17110       -6.03386        0.77746
C          1.57882       -4.91866        0.71266
H          1.36844       -2.22874        0.49238
H         -2.77919       -1.73967        0.97052
C         -3.52633       -4.32715        1.34938
C          3.76862        1.37772        0.06821
C          3.25012        0.44207       -0.86313
C          1.94651        0.00935       -0.69773
C          1.20051        0.40024        0.38195
C          1.72753        1.22994        1.33591
C          3.02207        1.70953        1.22807
O          5.01437        2.01298       -0.18108
C          4.04913       -0.06561       -2.07267
H          1.47047       -0.60690       -1.44046
H          1.10031        1.52123        2.15983
C          3.57253        2.61999        2.33636
C          2.77781       -4.14246        1.30459
C          1.42423       -6.20442        1.54489
C          1.89497       -5.26700       -0.74993
C         -4.34156       -3.30938        2.17942
C         -4.26175       -4.58136        0.02487
C         -3.45740       -5.62431        2.17589
C         -1.38833       -6.49471       -0.55034
H          3.65329       -4.78636        1.38535
H          3.06119       -3.29683        0.68000
H          2.54375       -3.76943        2.30130
H          1.15757       -5.96549        2.57386
H          0.64754       -6.84857        1.14070
H          2.35182       -6.77614        1.55869
H          2.80699       -5.85887       -0.82264
H          1.08710       -5.83666       -1.20286
H          2.03148       -4.36136       -1.34044
H         -5.28914       -3.74206        2.49957
H         -3.79261       -3.00866        3.07147
H         -4.57730       -2.41557        1.60388
H         -4.33985       -3.66192       -0.55482
H         -3.73532       -5.31192       -0.58449
H         -5.26961       -4.95532        0.20313
H         -2.89840       -5.46301        3.09702
H         -4.45499       -5.97357        2.44105
H         -2.96652       -6.42162        1.62353
H         -2.34391       -7.01598       -0.60471
H         -1.39052       -5.65599       -1.24775
H         -0.60193       -7.19626       -0.82810
C          4.91456        3.21185       -0.94032
C          3.60727       -1.49758       -2.45374
C          3.79363        0.86081       -3.27141
C          5.55440       -0.13182       -1.75839
C          5.09287        2.44103        2.49792
C          3.24124        4.08250        2.00164
C          2.93099        2.27119        3.69895
H          3.65921       -2.16094       -1.59113
H          2.58993       -1.51784       -2.84133
H          4.25261       -1.90773       -3.23012
H          4.33522        0.51793       -4.15253
H          2.73209        0.88817       -3.51685
H          4.10926        1.87919       -3.05792
H          6.11161       -0.54915       -2.59674
H          5.96157        0.85446       -1.55159
H          5.73626       -0.75740       -0.88512
H          5.47214        3.03936        3.32595
H          5.33745        1.39750        2.69336
H          5.62634        2.74580        1.60118
H          3.61426        4.75411        2.77440
H          3.68388        4.38111        1.05453
H          2.16369        4.22462        1.92276
H          3.41217        2.82379        4.50561
H          3.03292        1.20790        3.91453
H          1.87273        2.52717        3.72438
H          3.87385        3.41912       -1.19097
H          5.32242        4.04357       -0.36615
H          5.49584        3.11478       -1.85709
