59
-75.79892062
Cl         1.51583        0.24112        2.41111
P          1.50362       -0.23587       -0.78620
P         -1.65276        0.02379       -0.82422
C          0.59570       -0.57649       -2.36033
H          1.24498       -0.31894       -3.20209
H          0.44602       -1.65677       -2.40720
C         -0.72145        0.15296       -2.41508
H         -1.35763       -0.19628       -3.23325
H         -0.56587        1.22233       -2.57733
C          2.92087       -1.41889       -0.61624
H          2.86657       -2.09829       -1.47631
C          2.41931        1.37681       -0.72306
H          1.92808        1.99544        0.03812
C         -2.83625       -1.39534       -0.62081
H         -2.68748       -1.76080        0.40304
C         -2.84544        1.43899       -0.72366
H         -2.94699        1.82130       -1.74685
C          4.15572       -0.49991       -0.70941
H          4.97313       -0.91602       -0.10252
H          4.53390       -0.48338       -1.74225
C          3.82621        0.94936       -0.26044
H          4.57985        1.65174       -0.64319
H          3.89190        1.01269        0.83595
C         -4.21194       -0.71442       -0.73511
H         -4.54329       -0.76016       -1.78175
H         -4.96572       -1.27487       -0.16122
C         -4.15304        0.76679       -0.27429
H         -4.21442        0.81127        0.82189
H         -5.02318        1.33085       -0.64330
C          2.86578       -2.22348        0.67796
H          2.84972       -1.52580        1.52454
H          3.80277       -2.78697        0.78899
C          2.40122        2.09753       -2.06705
H          2.94975        1.49152       -2.80003
H          1.37041        2.13914       -2.44031
C         -2.62273       -2.53875       -1.61086
H         -3.54658       -3.12999       -1.67963
H         -2.47555       -2.12008       -2.61421
C         -2.35792        2.54858        0.20039
H         -3.16967        3.27374        0.35128
H         -2.16437        2.12305        1.19332
C          1.68205       -3.17433        0.75501
H          1.68227       -3.87477       -0.08225
H          0.73597       -2.63380        0.72560
H          1.68855       -3.76177        1.67595
C          2.97510        3.50622       -2.00358
H          4.02092        3.50262       -1.69310
H          2.42914        4.12052       -1.28492
H          2.92548        4.01160       -2.97085
C         -1.46541       -3.44652       -1.22708
H         -1.65355       -3.94381       -0.27344
H         -0.54270       -2.88093       -1.10931
H         -1.28526       -4.22359       -1.97339
C         -1.11719        3.25588       -0.32237
H         -1.30606        3.72224       -1.29114
H         -0.77177        4.03724        0.35828
H         -0.29305        2.55573       -0.46068
Cl        -1.76892       -0.04692        2.36592
Pd        -0.09399       -0.01933        0.87446
