111
-148.55401881
P         -2.64746        1.89746        0.56918
P          0.18848        0.49946        0.49257
C         -1.72805        1.63144        2.11304
C         -0.47063        1.06924        2.06844
C         -3.72547        3.39830        0.69624
C         -3.45239        4.37612       -0.42500
C         -2.28098        1.97727        3.32997
H         -3.27185        2.39922        3.36515
C         -1.56725        1.76545        4.49708
H         -1.99895        2.03583        5.44691
C         -0.30509        1.20536        4.44720
H          0.24872        1.03737        5.35619
C          0.24323        0.85070        3.22790
H          1.21902        0.39431        3.17083
Pd        -1.08505        1.59076       -1.10903
Cl        -2.60089        2.26727       -2.61220
Cl         0.55814        1.18545       -2.58718
C         -5.14948        2.80300        0.67557
C         -3.91946        0.59581        0.23479
H         -3.68700        3.92740       -1.39100
H         -4.05976        5.27907       -0.32737
H         -2.40164        4.67450       -0.44588
H         -5.83595        3.51196        0.19008
H         -5.52243        2.68826        1.70399
H         -3.59389        0.05449       -0.66441
C         -5.19090        1.42387       -0.04219
C         -4.04391       -0.35241        1.40720
H         -3.50471        3.86643        1.66474
H         -6.07755        0.85141        0.26737
H         -5.30243        1.58238       -1.12507
H         -4.34545        0.18603        2.30762
H         -4.78875       -1.12934        1.21880
H         -3.09179       -0.84206        1.62106
C         -1.42940       -3.68777       -0.26515
C         -0.98132       -2.89409       -1.35165
C         -0.49040       -1.63043       -1.07750
C         -0.38381       -1.17461        0.20911
C         -0.70629       -1.98053        1.26888
C         -1.19197       -3.26158        1.06731
O         -2.15374       -4.88425       -0.51106
C         -1.06885       -3.35593       -2.81371
H         -0.19688       -0.96639       -1.87161
H         -0.58842       -1.58693        2.26323
C         -1.48060       -4.15143        2.28631
C          4.72445        0.60828        0.15234
C          4.07674       -0.55151        0.64946
C          2.69419       -0.54549        0.72856
C          1.97191        0.57412        0.40776
C          2.59880        1.73327        0.03431
C          3.97903        1.79473       -0.07028
O          6.10942        0.56881       -0.16008
C          4.84041       -1.81989        1.06098
H          2.15591       -1.42889        1.02641
H          1.98833        2.58863       -0.19894
C          4.63828        3.12423       -0.46901
C         -2.41724       -2.91301       -3.40207
C          0.06651       -2.72491       -3.65215
C         -0.91450       -4.88329       -2.92547
C         -2.91655       -3.90333        2.77278
C         -1.28690       -5.63999        1.94451
C         -0.50475       -3.82417        3.43962
C         -3.56138       -4.69794       -0.59117
H         -2.50558       -3.21316       -4.44580
H         -3.24875       -3.35039       -2.85444
H         -2.52135       -1.82923       -3.35228
H          1.03648       -2.90688       -3.19015
H          0.08834       -3.14933       -4.65554
H         -0.06340       -1.64953       -3.76375
H         -1.72715       -5.40213       -2.42328
H         -0.91436       -5.20198       -3.96753
H          0.02072       -5.20848       -2.47093
H         -3.04806       -2.86467        3.07438
H         -3.64055       -4.11527        1.98952
H         -3.15252       -4.53394        3.62955
H         -1.42472       -6.26583        2.82589
H         -1.99913       -5.97023        1.19249
H         -0.28457       -5.81706        1.55596
H          0.52889       -3.87184        3.09772
H         -0.68420       -2.83215        3.85144
H         -0.62011       -4.53520        4.25737
H         -4.05417       -5.29872        0.17303
H         -3.81512       -3.64683       -0.44710
H         -3.91881       -5.02710       -1.56674
C          6.38931        0.16348       -1.49432
C          4.08031       -2.57564        2.17530
C          4.97496       -2.74835       -0.15561
C          6.23135       -1.47408        1.62264
C          4.72271        3.20649       -2.00082
C          3.80574        4.32133        0.04359
C          6.04164        3.25872        0.14961
H          3.14655       -3.00110        1.81052
H          4.67842       -3.40157        2.55967
H          3.85275       -1.91123        3.00852
H          5.52785       -2.26801       -0.95928
H          5.49727       -3.66707        0.11005
H          3.99319       -3.01817       -0.54431
H          6.74606       -2.36843        1.97291
H          6.85974       -1.00789        0.86797
H          6.14581       -0.78195        2.45965
H          5.17419        4.14623       -2.31766
H          5.31892        2.39302       -2.40703
H          3.72951        3.14154       -2.44466
H          2.84829        4.39632       -0.46962
H          3.61681        4.23223        1.11307
H          4.33297        5.25988       -0.12609
H          6.47935        4.23010       -0.07913
H          6.71784        2.49675       -0.22952
H          5.99481        3.15428        1.23306
H          5.46263       -0.04754       -2.02961
H          6.93519        0.95321       -2.01019
H          7.01394       -0.72954       -1.48222
