171
-217.84575544
P         -1.62252        0.38264       -0.32489
P          1.60177       -0.40695       -0.31092
C         -0.88880        1.32678       -1.66292
C          0.86657       -1.38835       -1.62228
C         -0.10228        0.69337       -2.61844
C          0.52633        1.47757       -3.60463
C          0.32351        2.84778       -3.61145
C         -0.47592        3.45368       -2.66515
C         -1.07675        2.68702       -1.68642
C          1.05887       -2.74812       -1.60736
C          0.46008       -3.54422       -2.56358
C         -0.34312       -2.96818       -3.52521
C         -0.55040       -1.59898       -3.55714
C          0.07835       -0.78475       -2.59572
Cl         1.64464        0.49670        2.81018
Cl        -1.40490       -0.17162        3.07065
C         -1.42494       -1.01532       -4.61116
C          1.39463        0.86050       -4.64464
H         -0.62995        4.52010       -2.68635
H         -1.69696        3.15201       -0.93749
H          1.68059       -3.18945       -0.84537
H          0.61815       -4.61022       -2.55497
H          0.80381        3.44232       -4.37025
H         -0.82313       -3.58571       -4.26561
C         -3.87761       -3.31207       -1.62368
C         -2.87544       -3.44044       -0.67064
C         -2.18673       -2.29391       -0.29510
C         -2.48148       -1.08670       -0.87787
C         -3.46379       -0.97825       -1.83160
C         -4.18999       -2.09778       -2.22158
H         -4.44719       -4.18212       -1.89348
H         -1.42188       -2.32903        0.46121
H         -3.66644       -0.00904       -2.25488
C         -4.41736        2.86391        2.25074
C         -3.06589        3.18755        2.23083
C         -2.23282        2.44373        1.40568
C         -2.73080        1.40070        0.66477
C         -4.06594        1.08440        0.71117
C         -4.94156        1.81970        1.49939
H         -5.08449        3.42905        2.87388
H         -1.18028        2.66505        1.35582
H         -4.41851        0.24779        0.13528
C          4.40346       -2.82136        2.31793
C          3.04777       -3.12754        2.33147
C          2.21156       -2.40713        1.48862
C          2.71240       -1.40332        0.69726
C          4.05159       -1.10221        0.71169
C          4.92946       -1.81527        1.51748
H          5.07287       -3.36965        2.95354
H          1.15584       -2.61689        1.46145
H          4.40531       -0.29293        0.09867
C          3.86188        3.24274       -1.72727
C          4.16261        2.01233       -2.29776
C          3.43569        0.90606       -1.87259
C          2.46467        1.04232       -0.91076
C          2.18324        2.26486       -0.35449
C          2.87148        3.39888       -0.76624
H          4.43201        4.10336       -2.02476
H          3.62904       -0.07398       -2.27460
H          1.43191        2.32186        0.41367
Pd        -0.00489        0.03686        1.32502
C         -3.80509       -5.22283        0.81968
C         -2.59343       -4.80686       -0.03246
C         -1.34673       -4.75760        0.87052
C         -2.34883       -5.85375       -1.13584
H         -3.63380       -6.18692        1.29818
H         -3.99675       -4.48676        1.60027
H         -4.70448       -5.30532        0.21020
H         -0.47502       -4.42864        0.30580
H         -1.49453       -4.07704        1.70851
H         -1.12720       -5.74247        1.28243
H         -3.22947       -5.98698       -1.76263
H         -1.52372       -5.54942       -1.77853
H         -2.10027       -6.82328       -0.70450
C         -6.66794       -2.32015       -2.48606
C         -5.35094       -2.01651       -3.22323
C         -5.14406       -3.04773       -4.34926
C         -5.45486       -0.61597       -3.85797
H         -7.51859       -2.26032       -3.16473
H         -6.65475       -3.31952       -2.05227
H         -6.83031       -1.60816       -1.67765
H         -5.94477       -2.98410       -5.08594
H         -4.20016       -2.87730       -4.86480
H         -5.13339       -4.06534       -3.96124
H         -5.66176        0.14329       -3.10407
H         -4.53235       -0.34892       -4.37266
H         -6.26341       -0.58127       -4.58800
C         -3.48455        4.84361        4.11762
C         -2.47695        4.32935        3.07099
C         -2.09699        5.49020        2.13663
C         -1.22472        3.82755        3.81872
H         -4.35992        5.28406        3.64107
H         -3.81497        4.03558        4.77014
H         -3.03272        5.61303        4.74359
H         -2.97728        5.87411        1.62137
H         -1.64517        6.31063        2.69387
H         -1.38653        5.16424        1.37902
H         -1.46663        2.96188        4.43490
H         -0.43488        3.53416        3.12941
H         -0.82127        4.60356        4.46877
C         -6.78910        1.07071        3.01609
C         -6.43927        1.49149        1.57744
C         -6.81801        0.34104        0.62358
C         -7.25760        2.73540        1.18415
H         -6.20276        0.20211        3.31529
H         -6.58220        1.87291        3.72353
H         -7.84447        0.81268        3.10205
H         -6.28958       -0.57605        0.88357
H         -7.88615        0.13057        0.67526
H         -6.58100        0.59688       -0.40897
H         -7.07170        3.56542        1.86460
H         -6.99893        3.06305        0.17739
H         -8.32611        2.52164        1.20534
C          2.07775       -5.43105        2.34345
C          2.45992       -4.22966        3.22388
C          1.20936       -3.69525        3.95165
C          3.46989       -4.69612        4.29060
H          1.36699       -5.13827        1.57269
H          2.95700       -5.83890        1.84506
H          1.62550       -6.22494        2.93756
H          0.41584       -3.43746        3.25241
H          0.81032       -4.44033        4.63954
H          1.45157       -2.80085        4.52524
H          4.34192       -5.16261        3.83317
H          3.80564       -3.85841        4.90167
H          3.01789       -5.43256        4.95495
C          7.23145       -2.76758        1.20816
C          6.43136       -1.50065        1.56340
C          6.80442       -1.02832        2.98007
C          6.80918       -0.39167        0.56123
H          6.95594       -3.13116        0.21834
H          8.30230       -2.56474        1.20717
H          7.04603       -3.56853        1.92273
H          6.59918       -1.80043        3.72070
H          7.86328       -0.77790        3.04234
H          6.23051       -0.14288        3.25290
H          7.87989       -0.19031        0.59161
H          6.55655       -0.68429       -0.45776
H          6.29306        0.54002        0.79243
C          5.10171        2.90507       -4.45682
C          5.31385        1.90072       -3.30771
C          5.40582        0.48446       -3.90852
C          6.63889        2.21591       -2.58999
H          5.10021        3.93196       -4.09391
H          5.89499        2.81890       -5.19921
H          4.15204        2.72745       -4.95912
H          5.61570       -0.25696       -3.13788
H          4.47784        0.20907       -4.40866
H          6.20794        0.42789       -4.64426
H          6.80538        1.52288       -1.76609
H          7.48304        2.13571       -3.27466
H          6.63412        3.22552       -2.18041
C          1.36582        4.75638        0.76197
C          2.60184        4.78074       -0.15678
C          2.34706        5.80234       -1.28122
C          3.82495        5.21183        0.67106
H          1.52261        4.09668        1.61489
H          1.15220        5.75148        1.15177
H          0.48733        4.41461        0.21567
H          3.21995        5.91681       -1.92240
H          1.51221        5.48651       -1.90560
H          2.10816        6.78285       -0.86967
H          3.66243        6.18706        1.12962
H          4.02354        4.49290        1.46578
H          4.71718        5.27734        0.04914
H         -2.31452       -1.62745       -4.75905
H          2.28212        1.46857       -4.81908
H         -0.89890       -0.95461       -5.56482
H         -1.75787       -0.01169       -4.34320
H          0.86214        0.76747       -5.59209
H          1.73077       -0.13330       -4.34586
