111
-148.55315495
P         -2.70091        1.84479       -0.17091
P          0.12253        0.51116        0.35555
C         -1.89311        2.05368        1.43928
C         -0.64111        1.51525        1.64468
C         -3.63432        3.36132       -0.67465
C         -2.89069        4.14732       -1.73236
C         -2.52136        2.74127        2.45792
H         -3.50837        3.14389        2.30007
C         -1.88684        2.89510        3.67861
H         -2.37653        3.43233        4.47438
C         -0.62917        2.35916        3.87947
H         -0.13680        2.47647        4.83077
C         -0.00608        1.66185        2.86012
H          0.96781        1.22084        3.00525
Pd        -1.06726        1.01725       -1.57304
Cl        -2.49760        1.27293       -3.27771
Cl         0.67866        0.15921       -2.70096
C         -4.99016        2.78919       -1.12823
C         -4.06770        0.59646       -0.17668
H         -2.73815        3.54468       -2.62860
H         -3.44403        5.04173       -2.02791
H         -1.90598        4.45904       -1.37600
H         -4.94998        2.60507       -2.21074
H         -5.78881        3.53274       -0.98382
H         -3.89044       -0.04239       -1.05237
C         -5.32474        1.46089       -0.39048
C         -4.07569       -0.22502        1.09414
H         -3.76139        3.96485        0.23294
H         -5.76795        1.68821        0.58882
H         -6.09234        0.89145       -0.93627
H         -3.14478       -0.78350        1.20864
H         -4.18233        0.41728        1.97024
H         -4.90127       -0.94046        1.10289
C         -1.31090       -3.78028        0.87162
C         -0.77779       -3.35783       -0.37278
C         -0.34363       -2.04952       -0.48545
C         -0.35921       -1.19984        0.58837
C         -0.76655       -1.63693        1.82137
C         -1.21202       -2.93509        2.00689
O         -1.98412       -5.02694        0.96968
C         -0.71863       -4.26896       -1.60796
H         -0.00683       -1.65954       -1.42962
H         -0.75625       -0.93758        2.63870
C         -1.62119       -3.38967        3.41651
C          4.63796        1.04288        0.10135
C          3.79519        2.18224        0.16061
C          2.42791        1.98369        0.26758
C          1.89508        0.72119        0.25235
C          2.69675       -0.37766        0.08783
C          4.07041       -0.24998       -0.03072
O          6.04684        1.19323        0.20258
C          4.34526        3.61694        0.12862
H          1.75439        2.81754        0.36831
H          2.22964       -1.34600        0.04855
C          4.91860       -1.50452       -0.29232
C         -0.52670       -5.74201       -1.20485
C         -2.01268       -4.10313       -2.41937
C          0.47931       -3.88934       -2.50827
C         -0.78490       -2.65509        4.48897
C         -3.10523       -3.06531        3.64645
C         -1.37129       -4.89664        3.60808
C         -3.37942       -4.95068        0.70436
H         -0.42178       -6.37823       -2.08331
H          0.36700       -5.85860       -0.59269
H         -1.37350       -6.11056       -0.63149
H         -2.88496       -4.37791       -1.83105
H         -2.13890       -3.06755       -2.73480
H         -1.99720       -4.72839       -3.31160
H          1.40579       -3.88014       -1.93554
H          0.59552       -4.60681       -3.32016
H          0.34856       -2.90956       -2.96493
H          0.28093       -2.75982        4.28777
H         -1.02371       -1.59339        4.53012
H         -0.98052       -3.06499        5.47960
H         -3.73632       -3.56426        2.91491
H         -3.42466       -3.38228        4.63887
H         -3.28330       -1.99358        3.56222
H         -1.99078       -5.48980        2.94013
H         -0.32969       -5.14180        3.40326
H         -1.59831       -5.20513        4.62827
H         -3.62713       -5.59301       -0.14053
H         -3.93671       -5.30088        1.57305
H         -3.66826       -3.92369        0.47679
C          6.54395        1.13308        1.53345
C          5.61922        3.70241       -0.73182
C          3.31463        4.58324       -0.49830
C          4.64207        4.08028        1.56277
C          4.10482       -2.55636       -1.08071
C          6.15704       -1.16618       -1.14185
C          5.34633       -2.12106        1.04787
H          5.42747        3.33162       -1.73817
H          5.97141        4.73065       -0.81004
H          6.42589        3.11042       -0.30669
H          3.74895        5.57245       -0.64128
H          2.98411        4.21918       -1.47078
H          2.43963        4.70779        0.13789
H          5.02338        5.10105        1.57232
H          3.73866        4.05130        2.17160
H          5.38179        3.44100        2.03851
H          3.66907       -2.11633       -1.97744
H          4.73999       -3.38633       -1.38930
H          3.30111       -2.97655       -0.47794
H          5.86192       -0.68947       -2.07602
H          6.82429       -0.48670       -0.61735
H          6.72449       -2.06458       -1.38330
H          4.47438       -2.38861        1.64432
H          5.94408       -1.42406        1.63007
H          5.93805       -3.02266        0.89147
H          7.05817        2.06344        1.77378
H          5.72687        0.97590        2.23870
H          7.26122        0.31701        1.61900
