105
-153.06036524
Cl         0.58461        3.68161        1.47470
Pd        -0.10062        1.94897        0.20656
P         -0.75388        0.23416       -1.30065
N          0.10344       -1.17741       -1.94579
C          0.19029       -2.50383       -1.53475
C         -0.12464       -2.96938       -0.22894
C          0.20081       -4.29703        0.12645
C          0.11633       -4.72500        1.57380
C         -0.04775       -6.24134        1.74615
C          1.04297       -6.98330        0.96740
C          0.98795       -6.63613       -0.53047
C          0.69395       -5.18487       -0.83311
C          0.91590       -4.72741       -2.12497
C          0.69345       -3.41734       -2.46069
H          0.91577       -3.07407       -3.45631
H          1.29378       -5.41448       -2.86328
H          1.93379       -6.91033       -1.01492
H          2.02552       -6.70639        1.36997
H         -0.03562       -6.52235        2.80877
H          1.03383       -4.39740        2.07751
C         -0.71158       -2.08873        0.81612
C          0.11286       -1.10042        1.41402
C         -0.34890       -0.41283        2.53668
C         -1.59814       -0.66944        3.03942
C         -2.43762       -1.60812        2.44618
C         -3.79754       -1.84190        3.04956
C         -4.38670       -3.21064        2.67874
C         -4.32320       -3.42664        1.16380
C         -2.87839       -3.34621        0.64071
C         -2.00239       -2.31911        1.32443
H         -2.40870       -4.33119        0.73382
H         -4.93331       -2.66218        0.66996
H         -5.41788       -3.30846        3.04691
H         -4.47176       -1.04439        2.71596
H         -1.95016       -0.12644        3.90004
H          0.27563        0.33889        2.98337
N          1.27556       -0.74205        0.73749
P          1.83392        0.87285        0.97205
C          2.93804        1.34691       -0.35235
C          3.15783        2.68211       -0.59332
C          3.92484        3.06584       -1.67784
C          4.47156        2.11273       -2.52722
C          4.22386        0.76971       -2.27446
C          3.45729        0.38761       -1.18839
H          3.24918       -0.65299       -0.99865
H          4.62708        0.02521       -2.93948
C          5.26335        2.52446       -3.71911
H          4.08953        4.11028       -1.88019
H          2.68783        3.41412        0.04456
C          2.62570        0.96376        2.57663
C          3.34066       -0.12938        3.00435
C          3.96122       -0.10352        4.24115
C          3.86164        1.01541        5.05760
C          3.14036        2.11150        4.60331
C          2.52222        2.08181        3.36804
H          1.95053        2.92306        3.01536
H          3.06570        2.98818        5.22381
C          4.54869        1.05425        6.37831
H          4.52636       -0.95497        4.57978
H          3.40023       -1.00031        2.37030
H          1.12581       -0.84867       -0.26522
H          0.30065       -0.98595       -2.92025
C         -0.62557        1.40841       -2.65850
C         -1.73164        1.90603       -3.30454
C         -1.57301        2.81819       -4.33133
C         -0.30592        3.23192       -4.72120
C          0.79788        2.72347       -4.05045
C          0.63664        1.81093       -3.02416
H          1.49171        1.42560       -2.49277
H          1.78429        3.05224       -4.32929
C         -0.13633        4.23920       -5.80461
H         -2.43612        3.22109       -4.83313
H         -2.71449        1.59124       -2.99503
C         -2.48544       -0.19921       -1.14565
C         -3.02098       -1.02187       -2.10781
C         -4.36863       -1.33476       -2.07528
C         -5.18631       -0.82622       -1.07546
C         -4.62660        0.00393       -0.11377
C         -3.27960        0.31260       -0.14753
H         -2.84704        0.96108        0.59650
H         -5.25447        0.41435        0.65841
C         -6.64235       -1.13791       -1.05564
H         -4.79375       -1.97366       -2.83026
H         -2.38056       -1.41281       -2.88288
Cl        -1.99214        3.05678       -0.29034
H          0.22247       -7.24985       -1.02036
H         -1.03303       -6.54490        1.37074
H          0.95893       -8.06853        1.12036
H         -0.69166       -4.19322        2.08771
H         -4.78341       -4.38630        0.88958
H         -2.87871       -3.13439       -0.43560
H         -3.73175       -1.73613        4.13998
H         -3.81568       -4.00081        3.18248
H          6.03383        1.78839       -3.95277
H          4.62022        2.62810       -4.59413
H          5.75995        3.48112       -3.55120
H          4.61330        0.05800        6.81805
H          5.56251        1.44364        6.27605
H          4.01253        1.69205        7.08246
H         -0.15212        5.25105       -5.39745
H          0.81184        4.10089       -6.32610
H         -0.93493        4.16098       -6.54364
H         -7.19647       -0.43694       -1.68126
H         -6.83378       -2.14554       -1.42748
H         -7.04556       -1.07653       -0.04377
