171
-217.84471339
P         -1.61907        0.37532       -0.38709
P          1.60544       -0.42211       -0.28704
C         -0.87004        1.28874       -1.73617
C          0.91122       -1.41713       -1.61084
C         -0.05582        0.64269       -2.65942
C          0.58179        1.41204       -3.65205
C          0.34963        2.77646       -3.70448
C         -0.48570        3.39206       -2.79641
C         -1.08696        2.64295       -1.80407
C          1.11967       -2.77466       -1.57941
C          0.54632       -3.58901       -2.53551
C         -0.24998       -3.03343       -3.51411
C         -0.47319       -1.66714       -3.56308
C          0.13373       -0.83354       -2.60461
Cl         1.54835        0.32494        2.82892
Cl        -1.68852       -0.48671        2.80328
C         -1.33219       -1.10175       -4.63865
C          1.49706        0.79032       -4.64824
H         -0.66567        4.45287       -2.85746
H         -1.72924        3.11566       -1.07825
H          1.73598       -3.20136       -0.80510
H          0.71761       -4.65284       -2.51265
H          0.83491        3.35869       -4.46966
H         -0.70940       -3.66492       -4.25577
C         -3.96675       -3.27508       -1.65759
C         -2.92411       -3.42452       -0.75171
C         -2.21481       -2.28825       -0.38443
C         -2.52495       -1.06891       -0.93238
C         -3.54450       -0.94062       -1.84386
C         -4.30449       -2.04492       -2.21030
H         -4.53655       -4.14502       -1.92422
H         -1.41765       -2.34258        0.33652
H         -3.75676        0.03083       -2.25853
C         -4.27115        2.98387        2.21971
C         -4.85909        1.99050        1.44634
C         -4.03071        1.22557        0.63662
C         -2.67620        1.44690        0.60763
C         -2.11241        2.43243        1.38130
C         -2.90113        3.21367        2.21650
H         -4.88931        3.59350        2.85134
H         -4.44562        0.43889        0.03189
H         -1.04598        2.57238        1.34604
C          4.43533       -2.81137        2.33796
C          3.08784       -3.15499        2.32291
C          2.24170       -2.43601        1.48895
C          2.72489       -1.40438        0.72361
C          4.05475       -1.06891        0.76365
C          4.94118       -1.76943        1.56908
H          5.10495       -3.36276        2.96925
H          1.19103       -2.66896        1.44983
H          4.40491       -0.24174        0.17149
C          3.88362        3.26332       -1.57364
C          2.88452        3.39358       -0.61629
C          2.17014        2.25565       -0.26655
C          2.45299        1.04829       -0.85401
C          3.44309        0.93403       -1.79865
C          4.18440        2.04767       -2.17644
H          4.46262        4.12498       -1.84734
H          1.40049        2.30457        0.48473
H          3.64318       -0.03642       -2.22041
Pd        -0.06762       -0.02895        1.31094
C         -3.80663       -5.25615        0.70857
C         -2.61580       -4.80424       -0.15489
C         -1.35358       -4.76720        0.72797
C         -2.38175       -5.81743       -1.29116
H         -3.61497       -6.22960        1.15961
H         -3.99204       -4.54206        1.51079
H         -4.71646       -5.33498        0.11440
H         -1.12411       -5.75897        1.11726
H         -0.49152       -4.42565        0.15615
H         -1.48891       -4.10294        1.58115
H         -2.11745       -6.79647       -0.89186
H         -3.27226       -5.94014       -1.90611
H         -1.57082       -5.48762       -1.93939
C         -4.98151       -1.44603       -4.55395
C         -5.49412       -1.87006       -3.16740
C         -6.43694       -0.78458       -2.61458
C         -6.29924       -3.17522       -3.32080
H         -4.41121       -0.51958       -4.49651
H         -4.33832       -2.21651       -4.97745
H         -5.81026       -1.28610       -5.24350
H         -7.31817       -0.67388       -3.24623
H         -6.77219       -1.04051       -1.60969
H         -5.93984        0.18323       -2.56969
H         -6.67779       -3.51696       -2.35755
H         -7.15553       -3.02594       -3.97847
H         -5.68781       -3.96645       -3.75414
C         -6.61811        0.22123        1.73923
C         -6.36974        1.71609        1.45650
C         -6.95520        2.08916        0.08370
C         -7.09194        2.53845        2.54127
H         -6.16690       -0.07012        2.68745
H         -7.68527        0.00659        1.79259
H         -6.19357       -0.40985        0.95972
H         -6.48140        1.51629       -0.71161
H         -8.02662        1.89268        0.04800
H         -6.79699        3.14639       -0.12840
H         -8.15624        2.30401        2.55935
H         -6.68782        2.32121        3.52988
H         -6.99581        3.60781        2.35476
C         -2.81148        5.66956        2.70610
C         -2.30265        4.28403        3.14047
C         -0.76297        4.28434        3.08630
C         -2.72902        4.00081        4.59354
H         -2.39617        6.45394        3.33863
H         -2.52430        5.87882        1.67568
H         -3.89757        5.72813        2.76916
H         -0.36059        3.31080        3.36636
H         -0.40973        4.53232        2.08719
H         -0.35026        5.02366        3.77251
H         -2.28505        4.72338        5.27802
H         -3.81049        4.05516        4.71034
H         -2.40835        3.00497        4.89904
C          2.09577       -5.44940        2.25532
C          2.51185       -4.29183        3.17884
C          1.28349       -3.77811        3.95703
C          3.54148       -4.81637        4.19828
H          1.65957       -6.26903        2.82601
H          1.36066       -5.11945        1.52320
H          2.95654       -5.83597        1.70998
H          1.54935       -2.91630        4.56870
H          0.48085       -3.47499        3.28656
H          0.88743       -4.55106        4.61525
H          3.10163       -5.58873        4.82915
H          4.40412       -5.25584        3.69810
H          3.88940       -4.01436        4.84911
C          7.00170       -1.50233        0.16740
C          6.41933       -1.35521        1.58552
C          7.24661       -2.22716        2.54899
C          6.52747        0.11335        2.03861
H          6.47470       -0.86774       -0.54397
H          8.05496       -1.22307        0.14660
H          6.91783       -2.53243       -0.17835
H          6.87721       -2.14112        3.57071
H          7.21349       -3.27624        2.25554
H          8.29180       -1.91799        2.54921
H          7.56858        0.43227        2.08440
H          6.00548        0.78000        1.35299
H          6.08959        0.24331        3.02804
C          1.13626        5.15533       -0.29875
C          2.56453        4.72497        0.07696
C          3.53925        5.84051       -0.34647
C          2.67279        4.54130        1.60311
H          0.85298        6.07196        0.21825
H          1.06212        5.33623       -1.37048
H          0.41241        4.38361       -0.04162
H          3.30763        6.77198        0.17000
H          4.56798        5.57457       -0.10389
H          3.47454        6.03388       -1.41705
H          3.67706        4.22222        1.88096
H          2.45786        5.47353        2.12509
H          1.97454        3.78854        1.96550
C          5.17123        2.97918       -4.29569
C          5.35853        1.95368       -3.16143
C          5.46636        0.54881       -3.78658
C          6.66637        2.25270       -2.40563
H          5.97917        2.90553       -5.02347
H          4.23109        2.81169       -4.81951
H          5.16323        3.99914       -3.91381
H          5.65600       -0.20731       -3.02514
H          4.55265        0.28247       -4.31662
H          6.28781        0.50607       -4.50164
H          7.52728        2.17937       -3.06987
H          6.65530        3.25600       -1.98102
H          6.80900        1.54637       -1.58800
H         -0.74471       -0.87372       -5.52868
H          2.40676        1.38093       -4.75707
H         -1.82258       -0.18387       -4.31127
H         -2.10945       -1.80955       -4.92713
H          1.02240        0.72686       -5.62831
H          1.79221       -0.21599       -4.34819
