58
-89.86855400
P          1.74903        0.57981        0.66991
C          3.29944        1.26135        0.07359
C          3.45930        2.62604       -0.00067
C          4.65009        3.15481       -0.46629
C          5.67275        2.31180       -0.85416
C          5.50760        0.94287       -0.77972
C          4.31549        0.41764       -0.31478
H          4.17151       -0.64886       -0.25505
H          2.64608        3.27284        0.28854
C          1.82555       -1.22211        0.68304
C          1.70176       -1.88277       -0.51840
C          1.72998       -3.26478       -0.55580
C          1.88830       -3.97959        0.61385
C          2.02639       -3.31497        1.81572
C          1.99938       -1.93284        1.84865
H          2.12391       -1.41175        2.78301
H          1.58278       -1.31314       -1.42670
C          1.35852        1.28643        2.32889
C         -0.12160        1.30192        2.68732
C         -0.82001       -0.04485        2.52764
P         -1.49792       -0.25067        0.82576
C         -1.60693       -1.97346        0.33066
C         -1.78114       -2.25091       -1.00559
C         -1.86445       -3.56249       -1.43411
C         -1.77834       -4.58950       -0.51519
C         -1.61544       -4.30727        0.82703
C         -1.53186       -2.99351        1.25186
H         -1.40809       -2.76280        2.29726
H         -1.85388       -1.43169       -1.70314
C         -3.11604        0.52519        0.77631
C         -4.23662       -0.26485        0.89812
C         -5.49314        0.31326        0.86729
C         -5.61698        1.68014        0.71507
C         -4.48979        2.46867        0.59392
C         -3.23475        1.88793        0.62628
H         -2.34841        2.49201        0.51776
H         -4.12270       -1.33116        1.01244
Pd        -0.10788        0.79234       -0.70913
Cl         1.20031        2.00809       -2.06751
Cl        -1.87978        0.88829       -2.09023
H         -0.14106       -0.86763        2.75042
H         -1.67381       -0.14520        3.20274
H         -0.23695        1.66497        3.72066
H         -0.64263        2.04432        2.06721
H          1.92945        0.71103        3.05897
H          1.77254        2.29725        2.34872
H          4.77590        4.22309       -0.53111
H          6.30394        0.28438       -1.08554
H          1.62149       -3.78094       -1.49548
H          2.15529       -3.87278        2.72875
H         -1.99606       -3.78054       -2.48112
H         -1.54991       -5.10957        1.54347
H         -6.37240       -0.30291        0.95948
H         -4.58651        3.53469        0.46931
H          6.59984        2.72297       -1.21909
H          1.90417       -5.05698        0.58858
H         -1.84045       -5.61346       -0.84580
H         -6.59511        2.13206        0.68787
