111
-148.55616926
P         -2.43828        2.40097        0.05907
P         -0.05774        0.34747        0.46985
C         -1.76246        2.12601        1.71651
C         -0.75227        1.20685        1.89406
C         -2.64390        4.20625       -0.28071
C         -1.93904        4.58546       -1.56461
C         -2.26990        2.81062        2.80229
H         -3.05001        3.53950        2.65447
C         -1.77414        2.55718        4.06964
H         -2.17082        3.09010        4.91832
C         -0.77809        1.61652        4.24853
H         -0.39767        1.41252        5.23588
C         -0.26722        0.93732        3.15703
H          0.50491        0.19392        3.28102
Pd        -1.29120        1.00943       -1.38438
Cl        -2.65882        1.68366       -3.03109
Cl        -0.16732       -0.44404       -2.67666
C         -4.17597        4.38382       -0.32835
C         -4.19303        1.82861       -0.11913
H         -2.35947        4.03670       -2.40916
H         -2.04184        5.65190       -1.77950
H         -0.87295        4.34989       -1.51755
H         -4.43003        5.18546       -1.03709
H         -4.54395        4.72674        0.64981
H         -4.17974        0.99715       -0.83725
C         -4.89935        3.06313       -0.71516
C         -4.76770        1.36967        1.20424
H         -2.20624        4.74313        0.57194
H         -5.94792        3.08293       -0.38411
H         -4.93544        2.97751       -1.81122
H         -5.78214        0.98099        1.08779
H         -4.15376        0.58614        1.65441
H         -4.81428        2.19805        1.91268
C         -0.99842       -4.10270        0.56949
C          0.26822       -3.64598        1.02385
C          0.53158       -2.28723        0.96993
C         -0.43336       -1.39685        0.57789
C         -1.70336       -1.81940        0.28317
C         -2.02944       -3.16512        0.29531
O         -1.20496       -5.48191        0.31019
C          1.36207       -4.56569        1.59292
H          1.50696       -1.90922        1.22592
H         -2.44286       -1.08301        0.01821
C         -3.48430       -3.55337       -0.01575
C          4.44324        0.95045       -0.01940
C          3.71390        0.16896       -0.95016
C          2.34515        0.05910       -0.77988
C          1.70916        0.61892        0.29653
C          2.42544        1.29859        1.24771
C          3.79756        1.45320        1.13895
O          5.81000        1.25258       -0.26138
C          4.37336       -0.53577       -2.14626
H          1.74176       -0.45243       -1.50812
H          1.89418        1.71723        2.08280
C          4.56116        2.17393        2.26186
C          2.52758       -4.65540        0.59388
C          1.88101       -3.97526        2.92262
C          0.84004       -5.97947        1.90241
C         -3.74662       -3.37091       -1.52026
C         -3.80267       -5.00186        0.39290
C         -4.44517       -2.63837        0.77535
C         -0.82103       -5.85476       -1.00290
H          3.31869       -5.30043        0.97532
H          2.19695       -5.05812       -0.36173
H          2.95827       -3.67188        0.40993
H          2.61254       -4.63868        3.38328
H          2.36417       -3.01065        2.77595
H          1.06131       -3.83732        3.62718
H          1.60220       -6.57996        2.39851
H         -0.03296       -5.93290        2.55248
H          0.55098       -6.50133        0.99339
H         -4.77982       -3.61248       -1.76806
H         -3.55955       -2.34179       -1.82582
H         -3.09994       -4.01412       -2.11358
H         -3.23191       -5.71297       -0.19960
H         -3.55783       -5.16789        1.44138
H         -4.85919       -5.22736        0.24985
H         -5.47943       -2.95579        0.64486
H         -4.21598       -2.66732        1.84020
H         -4.38198       -1.60396        0.44289
H         -0.98187       -6.92494       -1.13470
H         -1.41441       -5.30889       -1.73439
H          0.23100       -5.62513       -1.16462
C          6.01951        2.44053       -1.01462
C          4.39303        0.41736       -3.35074
C          5.80274       -0.99086       -1.80132
C          3.58012       -1.80384       -2.53902
C          3.84206        1.99207        3.61835
C          5.97872        1.59620        2.42648
C          4.63401        3.67542        1.94564
H          4.84324       -0.06123       -4.22000
H          3.38058        0.71914       -3.61819
H          4.95995        1.31892       -3.13231
H          6.44842       -0.14332       -1.58581
H          5.79780       -1.63812       -0.92490
H          6.24851       -1.54294       -2.62833
H          2.60394       -1.55749       -2.95391
H          4.11429       -2.37477       -3.29807
H          3.43227       -2.45178       -1.67605
H          4.44730        2.38922        4.43295
H          2.88903        2.51851        3.64381
H          3.65839        0.93735        3.82184
H          5.93671        0.52294        2.60910
H          6.58001        1.75945        1.53562
H          6.49739        2.06286        3.26356
H          3.63394        4.09952        1.85856
H          5.15244        3.85646        1.00733
H          5.16238        4.21479        2.73138
H          5.06553        2.90722       -1.26313
H          6.62610        3.13745       -0.43656
H          6.55814        2.20217       -1.93159
