171
-217.84014084
P         -1.68986        0.66146       -0.14493
P          1.54107       -0.24794       -0.34966
C         -0.96424        1.74996       -1.39395
C          0.77233       -0.96971       -1.80499
C         -0.13963        1.27756       -2.41221
C          0.54240        2.20726       -3.22073
C          0.32993        3.56113       -3.02715
C         -0.52005        4.01174       -2.04104
C         -1.15231        3.10092       -1.21814
C          0.93735       -2.31159       -2.04643
C          0.34789       -2.90139       -3.14681
C         -0.41368       -2.13586       -4.00353
C         -0.60280       -0.78279       -3.77424
C          0.01399       -0.18056       -2.65996
Cl         1.77738        1.07510        2.71825
Cl        -1.34713        0.38281        3.05215
C         -1.43503        0.01770       -4.71437
C          1.50127        1.77115       -4.27297
H         -0.67693        5.06880       -1.90020
H         -1.79755        3.45074       -0.42969
H          1.53321       -2.90335       -1.37264
H          0.48094       -3.95459       -3.33308
H          0.84367        4.26509       -3.66005
H         -0.86823       -2.58927       -4.86783
C         -3.00562       -3.50695       -1.31432
C         -2.07118       -3.36349       -0.29534
C         -1.66380       -2.07717        0.03011
C         -2.16832       -0.99186       -0.64575
C         -3.09248       -1.15045       -1.64851
C         -3.53800       -2.41980       -1.99729
H         -3.34573       -4.49016       -1.57954
H         -0.95645       -1.92113        0.82593
H         -3.46753       -0.27339       -2.14811
C         -5.05630        2.68597        2.12158
C         -5.35758        1.61730        1.28494
C         -4.31181        1.02080        0.59381
C         -3.02487        1.47536        0.73935
C         -2.74498        2.52771        1.57490
C         -3.75932        3.15758        2.28414
H         -5.84515        3.16117        2.67369
H         -4.50193        0.18222       -0.05275
H         -1.71919        2.83141        1.69649
C          3.69241       -3.62867        1.82267
C          2.67451       -2.96416        2.49149
C          2.03127       -1.92939        1.82790
C          2.41060       -1.55280        0.56060
C          3.43271       -2.21660       -0.07519
C          4.08400       -3.28045        0.53724
H          4.19287       -4.44160        2.31597
H          1.22506       -1.41302        2.31271
H          3.70054       -1.92035       -1.07311
C          4.31501        3.13108       -1.54240
C          3.28588        3.38347       -0.64439
C          2.46529        2.32318       -0.28471
C          2.66628        1.07037       -0.80907
C          3.67952        0.84283       -1.70725
C          4.53053        1.87190       -2.09125
H          4.96664        3.94103       -1.81084
H          1.65745        2.47179        0.40911
H          3.80332       -0.14182       -2.12135
Pd         0.10173        0.53540        1.32864
C         -1.87248       -4.36654        1.99092
C         -1.52292       -4.55598        0.50303
C          0.00492       -4.63030        0.33621
C         -2.12796       -5.88970        0.02501
H         -2.95098       -4.28637        2.12509
H         -1.52005       -5.20856        2.58612
H         -1.41922       -3.46087        2.39122
H          0.42058       -5.46688        0.89716
H          0.27021       -4.76686       -0.71137
H          0.48413       -3.71986        0.69136
H         -1.73036       -6.72340        0.60373
H         -3.21143       -5.89382        0.14268
H         -1.89174       -6.07393       -1.02291
C         -5.83086       -3.34141       -2.41112
C         -4.62135       -2.64415       -3.06197
C         -4.05730       -3.52633       -4.18989
C         -5.10383       -1.31465       -3.67400
H         -6.22697       -2.73955       -1.59321
H         -6.63027       -3.49346       -3.13612
H         -5.55770       -4.31568       -2.00768
H         -4.80838       -3.70242       -4.95976
H         -3.20004       -3.04695       -4.66033
H         -3.73339       -4.49525       -3.81192
H         -5.53318       -0.66535       -2.91167
H         -4.28529       -0.78355       -4.15744
H         -5.87189       -1.49153       -4.42681
C         -6.80626       -0.41402        1.52914
C         -6.78071        1.06828        1.11018
C         -7.19476        1.19424       -0.36751
C         -7.79954        1.83797        1.97218
H         -6.14154       -1.01356        0.90813
H         -6.48675       -0.52618        2.56499
H         -7.81014       -0.82831        1.43789
H         -6.52938        0.62342       -1.01378
H         -8.20802        0.82384       -0.52220
H         -7.16199        2.23493       -0.68936
H         -8.80291        1.43398        1.83781
H         -7.55308        1.76291        3.03114
H         -7.82931        2.89212        1.69712
C         -3.87068        3.89314        4.67519
C         -3.47397        4.31650        3.24943
C         -4.29072        5.55023        2.82376
C         -1.97971        4.69851        3.25203
H         -3.66212        4.68790        5.39113
H         -4.93249        3.65759        4.73681
H         -3.31345        3.00763        4.98053
H         -5.36081        5.34967        2.85905
H         -4.08923        6.39660        3.48020
H         -4.03857        5.84537        1.80535
H         -1.65036        5.00278        2.25858
H         -1.79431        5.53091        3.93061
H         -1.36159        3.86318        3.58074
C          3.52907       -3.25219        4.83061
C          2.29293       -3.37611        3.92073
C          1.79443       -4.83201        3.91613
C          1.17855       -2.47737        4.49443
H          4.33166       -3.91139        4.50222
H          3.90978       -2.23104        4.82298
H          3.28373       -3.51354        5.85982
H          0.92051       -4.93700        3.27473
H          2.56233       -5.51232        3.54963
H          1.51525       -5.15201        4.91982
H          0.93052       -2.77140        5.51401
H          1.49006       -1.43324        4.51860
H          0.26763       -2.55063        3.90162
C          4.78355       -5.56122       -0.23456
C          5.19118       -4.07735       -0.16686
C          6.50272       -3.93163        0.62537
C          5.42810       -3.57540       -1.60485
H          5.53871       -6.14982       -0.75524
H          4.65993       -5.98548        0.76107
H          3.83931       -5.67623       -0.76679
H          6.39767       -4.31834        1.63841
H          7.31343       -4.47653        0.14200
H          6.79457       -2.88391        0.69591
H          6.20661       -4.15959       -2.09532
H          4.52251       -3.66226       -2.20520
H          5.74753       -2.53408       -1.60879
C          2.89992        5.80097       -1.20275
C          3.09555        4.78972       -0.05850
C          4.34264        5.16628        0.76109
C          1.86307        4.85779        0.86679
H          2.03193        5.53646       -1.80520
H          2.74451        6.80641       -0.81198
H          3.76755        5.83022       -1.86063
H          4.50411        4.44872        1.56533
H          5.23625        5.17714        0.13803
H          4.23330        6.15480        1.20678
H          1.73028        5.86482        1.26168
H          0.95337        4.59180        0.32932
H          1.97128        4.18366        1.71623
C          5.21056        0.81604       -4.28049
C          5.70679        1.57378       -3.03342
C          6.73173        0.70739       -2.28050
C          6.40038        2.86713       -3.50377
H          6.03607        0.60837       -4.96116
H          4.75540       -0.13768       -4.01736
H          4.47214        1.40477       -4.82302
H          7.10052        1.22736       -1.39656
H          6.28393       -0.22960       -1.95226
H          7.58543        0.46928       -2.91474
H          5.69296        3.53046       -4.00135
H          6.84772        3.40260       -2.66675
H          7.19891        2.64233       -4.21077
H         -0.81748        0.47877       -5.48587
H          1.08151        1.91407       -5.26956
H         -1.96852        0.81149       -4.18918
H         -2.17701       -0.60660       -5.21389
H          1.76648        0.71881       -4.16312
H          2.42327        2.35111       -4.21229
