111
-148.55535740
P         -2.16081        2.09217        1.44341
P          0.16910        0.13762        0.60502
C         -1.06238        1.42199        2.71358
C         -0.05494        0.55865        2.34319
C         -2.24318        3.93782        1.50515
C         -1.33502        4.56412        0.46871
C         -1.22016        1.77224        4.03890
H         -1.99868        2.46367        4.31757
C         -0.37336        1.23982        4.99577
H         -0.49625        1.50986        6.03191
C          0.62931        0.36449        4.62400
H          1.28865       -0.04973        5.36889
C          0.79100        0.02483        3.29246
H          1.57442       -0.64953        2.98483
Pd        -1.41522        1.33906       -0.60047
Cl        -3.23738        2.13660       -1.62671
Cl        -0.42388        0.56970       -2.46389
C         -3.74222        4.21469        1.29331
C         -3.95414        1.68414        1.68270
H         -0.29435        4.26984        0.62444
H         -1.61926        4.24892       -0.53709
H         -1.38730        5.65493        0.49883
H         -3.93150        4.32037        0.21595
H         -4.02076        5.18182        1.73918
H         -4.27602        1.22117        0.74042
C         -4.61891        3.06413        1.86219
C         -4.17513        0.74425        2.85020
H         -1.93823        4.22811        2.51906
H         -4.79215        3.23598        2.93321
H         -5.61762        3.06932        1.40029
H         -3.88961        1.21850        3.79015
H         -5.22473        0.45364        2.93613
H         -3.57774       -0.16353        2.75398
C         -1.34567       -4.05473       -0.33926
C         -2.16180       -3.13745        0.37555
C         -1.63507       -1.89210        0.67993
C         -0.39444       -1.52013        0.23005
C          0.33149       -2.34743       -0.58675
C         -0.12828       -3.60993       -0.91910
O         -1.70635       -5.42488       -0.40987
C         -3.61697       -3.42310        0.78394
H         -2.19953       -1.18487        1.26315
H          1.26681       -1.99077       -0.97974
C          0.70209       -4.44601       -1.90701
C          4.36544        1.02392       -0.93564
C          4.12870       -0.16652       -0.20209
C          2.84448       -0.41284        0.25451
C          1.83461        0.49109        0.04849
C          2.08398        1.69098       -0.56452
C          3.34725        2.00574       -1.03674
O          5.61120        1.21756       -1.59024
C          5.23214       -1.20284        0.06355
H          2.61200       -1.32705        0.77232
H          1.26669        2.38085       -0.68515
C          3.57760        3.38203       -1.68050
C         -3.70111       -3.56039        2.31301
C         -4.51009       -2.25092        0.32215
C         -4.17700       -4.69650        0.12648
C         -0.11403       -5.59834       -2.51801
C          1.16880       -3.55156       -3.07793
C          1.93529       -5.01330       -1.18566
C         -1.23238       -6.17354        0.69663
H         -4.72831       -3.73346        2.63283
H         -3.09489       -4.39371        2.66434
H         -3.34313       -2.65843        2.80774
H         -5.55717       -2.44350        0.55414
H         -4.23527       -1.31731        0.80728
H         -4.42454       -2.10433       -0.75417
H         -3.66059       -5.58448        0.48300
H         -5.23665       -4.82002        0.34887
H         -4.05888       -4.65367       -0.95570
H          0.45902       -6.12480       -3.28087
H         -0.39780       -6.32452       -1.75963
H         -1.02689       -5.22083       -2.97742
H          1.66969       -4.14367       -3.84337
H          0.31906       -3.05151       -3.54182
H          1.87191       -2.78753       -2.75069
H          1.64604       -5.68906       -0.38338
H          2.57112       -5.56618       -1.87669
H          2.53017       -4.21336       -0.74666
H         -0.14415       -6.15567        0.72031
H         -1.61101       -5.74844        1.62525
H         -1.57334       -7.20502        0.60542
C          5.64346        0.74738       -2.93208
C          6.59533       -0.51659        0.26507
C          4.93532       -2.00459        1.35117
C          5.30247       -2.18570       -1.11526
C          2.64642        4.44277       -1.04925
C          5.02183        3.86596       -1.45764
C          3.26886        3.29604       -3.18306
H          6.91258        0.00669       -0.63362
H          6.54268        0.21095        1.07432
H          7.36768       -1.24439        0.51256
H          5.77726       -2.64654        1.60942
H          4.75495       -1.33553        2.19219
H          4.06676       -2.65079        1.23194
H          6.05831       -2.95114       -0.94126
H          4.34433       -2.68344       -1.25945
H          5.55055       -1.67468       -2.04184
H          2.90053        5.44114       -1.40457
H          1.60327        4.26881       -1.30883
H          2.73631        4.44118        0.03676
H          5.16620        4.86774       -1.86144
H          5.25753        3.89165       -0.39426
H          5.74065        3.21001       -1.94178
H          2.23758        2.98357       -3.34597
H          3.91344        2.57435       -3.67851
H          3.40993        4.26211       -3.66693
H          5.83996        1.57918       -3.60812
H          6.44961        0.02260       -3.04480
H          4.69318        0.28076       -3.19486
