87
-129.18224945
P         -1.53768       -0.28141       -0.42591
P          1.72495        0.30211        0.23399
C         -1.09604        0.96731       -1.63881
C          1.52811       -0.80163       -1.18862
C          0.00473        0.73793       -2.45418
C          0.35476        1.70894       -3.41342
C         -0.41944        2.85263       -3.52470
C         -1.51238        3.05737       -2.70775
C         -1.84880        2.10903       -1.76184
C          2.15388       -2.01674       -1.03443
C          2.04599       -2.98922       -2.00970
C          1.29242       -2.74171       -3.13586
C          0.63550       -1.53496       -3.30431
C          0.75916       -0.53576       -2.31969
Cl         0.90598       -0.14456        3.37488
Cl        -1.64564       -1.87726        2.38218
H         -2.09967        3.95580       -2.80394
H         -2.70340        2.25596       -1.12265
H          2.72394       -2.20628       -0.13702
H          2.54018       -3.93865       -1.88454
H         -0.15145        3.59326       -4.25896
H          1.19404       -3.49983       -3.89428
C         -2.46030       -4.19114       -2.54690
C         -1.62931       -4.20556       -1.43499
C         -1.37915       -3.00663       -0.77922
C         -1.92115       -1.83106       -1.24307
C         -2.73865       -1.82316       -2.34875
C         -3.01379       -3.01034       -3.00189
H         -2.67195       -5.11662       -3.05474
C         -1.04385       -5.47627       -0.92866
H         -0.75774       -2.99718        0.10001
H         -3.14909       -0.88880       -2.69856
H         -3.65483       -3.01220       -3.86816
C         -5.15699        1.08839        1.98143
C         -5.22922       -0.06310        1.22323
C         -4.13323       -0.47360        0.48853
C         -2.97747        0.27120        0.51112
C         -2.90300        1.41746        1.26791
C         -3.99122        1.84101        2.02057
H         -6.00948        1.41015        2.55499
H         -6.13659       -0.64436        1.20767
H         -4.17177       -1.37762       -0.09687
H         -1.99348        1.99230        1.27380
C         -3.90691        3.08569        2.83193
C          6.06132       -0.05157        1.58049
C          5.75600        0.13780        0.24705
C          4.43553        0.23995       -0.15072
C          3.43223        0.15251        0.78676
C          3.73721       -0.03393        2.11351
C          5.05592       -0.14766        2.53217
H          7.08877       -0.12543        1.89397
H          6.54525        0.20692       -0.48351
H          4.18137        0.38155       -1.18951
H          2.94013       -0.09265        2.83260
C          5.38031       -0.32591        3.97383
C          0.81894        4.72224       -0.31546
C          1.69310        4.09302       -1.17963
C          1.97964        2.75099       -1.01393
C          1.38088        2.04950        0.00526
C          0.54065        2.68296        0.89231
C          0.24128        4.03142        0.74064
H          0.58399        5.76437       -0.44989
H          2.14423        4.64390       -1.98855
H          2.65547        2.24288       -1.68251
H          0.15015        2.13567        1.73347
C         -0.69731        4.71447        1.67113
Pd        -0.12446       -0.53313        1.42480
C          1.53750        1.53468       -4.30085
C         -0.19780       -1.33060       -4.52218
H          2.14517        2.44053       -4.32101
H          2.17560        0.71828       -3.96054
H          1.22736        1.31666       -5.32354
H          0.42681       -1.10819       -5.38812
H         -0.77934       -2.22521       -4.74926
H         -0.90185       -0.50811       -4.39242
H         -1.67585       -5.91150       -0.15339
H         -0.93757       -6.20922       -1.72965
H         -0.05441       -5.30749       -0.50088
H         -2.96717        3.12670        3.38442
H         -3.96526        3.96911        2.19466
H         -4.71910        3.14183        3.55798
H          4.57682       -0.84809        4.49537
H          6.29320       -0.90902        4.10313
H          5.52451        0.63977        4.46025
H         -1.70011        4.75849        1.24414
H         -0.75777        4.18981        2.62560
H         -0.37308        5.73586        1.87540
