87
-129.18244443
P         -1.54561       -0.24558       -0.33728
P          1.72163        0.30402        0.41370
C         -0.99727        0.89400       -1.61693
C          1.54840       -0.90152       -0.92387
C          0.14421        0.59885       -2.35256
C          0.58006        1.51500       -3.32945
C         -0.16320        2.66268       -3.55333
C         -1.30551        2.92671       -2.82572
C         -1.71841        2.03893       -1.85148
C          2.11334       -2.12509       -0.65142
C          2.02093       -3.15589       -1.56637
C          1.35495       -2.95228       -2.75507
C          0.76393       -1.73414       -3.04375
C          0.85586       -0.68293       -2.11109
Cl         0.95689       -0.25055        3.46573
Cl        -1.73249       -1.79925        2.52814
H         -1.86753        3.82799       -3.00775
H         -2.60191        2.23959       -1.26800
H          2.62366       -2.27267        0.28886
H          2.46541       -4.11337       -1.34967
H          0.16894        3.35991       -4.30367
H          1.27902       -3.75184       -3.47241
C         -2.59929       -4.21446       -2.29616
C         -2.03695       -4.21781       -1.02733
C         -1.75219       -2.99875       -0.42623
C         -1.99155       -1.81694       -1.08694
C         -2.54608       -1.82336       -2.34595
C         -2.85658       -3.02675       -2.95177
H         -2.83870       -5.15307       -2.76622
C         -1.78379       -5.49220       -0.30212
H         -1.36215       -2.97707        0.57592
H         -2.71773       -0.88841       -2.85574
H         -3.29206       -3.03678       -3.93751
C         -5.30949        1.56996        1.50310
C         -5.37140        0.87368        0.31295
C         -4.22380        0.31794       -0.22103
C         -3.02266        0.45652        0.43599
C         -2.96339        1.14930        1.62441
C         -4.10388        1.72208        2.17221
H         -6.20229        1.99793        1.92631
H         -6.31303        0.76134       -0.19907
H         -4.26107       -0.22705       -1.15013
H         -2.03238        1.23620        2.15452
C         -4.03665        2.44175        3.47320
C          6.08984        0.16911        1.69595
C          5.10587        0.19887        2.66408
C          3.77629        0.22540        2.29260
C          3.43611        0.22606        0.96141
C          4.41526        0.19552       -0.00580
C          5.75956        0.15726        0.34786
H          7.12786        0.15358        1.98168
H          5.37372        0.19993        3.70800
H          2.99737        0.23080        3.03487
H          4.13479        0.19335       -1.04651
C          6.81770        0.14717       -0.69868
C          0.74379        4.65587       -0.50701
C          1.81750        4.04652       -1.12629
C          2.12134        2.72772       -0.84346
C          1.34864        2.02831        0.05357
C          0.29701        2.64425        0.69322
C         -0.02910        3.96472        0.41600
H          0.49731        5.67806       -0.73817
H          2.41252        4.59459       -1.83826
H          2.95049        2.23738       -1.32679
H         -0.27697        2.10153        1.42107
C         -1.20256        4.59734        1.07786
Pd        -0.16438       -0.53179        1.54805
C          1.82293        1.27970       -4.11446
C          0.04907       -1.56801       -4.34012
H          2.42002        0.47462       -3.68448
H          1.58752        1.01222       -5.14533
H          2.44529        2.17556       -4.13355
H          0.75711       -1.43518       -5.15905
H         -0.55994       -2.44495       -4.56359
H         -0.61429       -0.70289       -4.32495
H         -2.63069       -5.74915        0.33555
H         -1.62137       -6.31704       -0.99735
H         -0.89838       -5.41267        0.33043
H         -4.23772        1.76103        4.30150
H         -3.04949        2.87883        3.63052
H         -4.76776        3.25038        3.51461
H          7.10632        1.16435       -0.96721
H          7.70990       -0.37613       -0.35184
H          6.47072       -0.35425       -1.60342
H         -1.16282        4.45460        2.15869
H         -1.23916        5.67015        0.88426
H         -2.13359        4.15879        0.71541
