111
-148.55193261
P         -2.54477        2.08242        1.10905
P          0.09989        0.44251        0.50779
C         -1.42384        1.63547        2.46706
C         -0.25436        0.96060        2.19365
C         -3.39782        3.68310        1.49217
C         -3.24984        4.68390        0.36792
C         -1.73934        1.95645        3.77244
H         -2.66258        2.46868        3.98764
C         -0.87711        1.60632        4.79733
H         -1.12404        1.85715        5.81603
C          0.29725        0.93442        4.51741
H          0.96734        0.65994        5.31543
C          0.60786        0.60674        3.21001
H          1.51259        0.06871        2.97353
Pd        -1.36059        1.62776       -0.83485
Cl        -2.98674        2.66223       -1.97543
Cl        -0.08125        1.13681       -2.61631
C         -4.85437        3.24564        1.75299
C         -4.00472        0.95224        0.97986
H         -3.71042        5.64211        0.61965
H         -2.19868        4.86400        0.13116
H         -3.73391        4.31729       -0.53798
H         -5.53904        4.05086        1.44900
H         -5.01792        3.11095        2.83230
H         -3.93118        0.44735        0.00669
C         -5.20201        1.92390        1.01214
C         -3.99931       -0.06198        2.10265
H         -2.93196        4.07561        2.40600
H         -6.06390        1.42975        1.48383
H         -5.51916        2.15726       -0.01498
H         -3.08552       -0.66000        2.08828
H         -4.05062        0.43638        3.07249
H         -4.85100       -0.74298        2.03382
C         -1.07685       -3.90218       -0.17106
C         -1.06360       -3.38735        1.15116
C         -0.70621       -2.06213        1.33571
C         -0.44633       -1.24654        0.26593
C         -0.56608       -1.71160       -1.01619
C         -0.91959       -3.02398       -1.27350
O         -1.19993       -5.30010       -0.38946
C         -1.37734       -4.25486        2.38002
H         -0.60305       -1.65311        2.32501
H         -0.36171       -1.02537       -1.81949
C         -1.08154       -3.47642       -2.73242
C          4.47509        0.63154       -0.72682
C          3.95480       -0.54021       -0.11576
C          2.61731       -0.55036        0.24234
C          1.83289        0.56293        0.08833
C          2.36203        1.73629       -0.37993
C          3.69162        1.81637       -0.76170
O          5.73769        0.59340       -1.37233
C          4.78046       -1.80508        0.17351
H          2.16339       -1.44758        0.62917
H          1.71338        2.59114       -0.47079
C          4.22768        3.18611       -1.21077
C         -0.07537       -4.88181        2.90146
C         -2.00103       -3.40170        3.50783
C         -2.39767       -5.35598        2.03830
C          0.28080       -3.93615       -3.27381
C         -2.11326       -4.61243       -2.85180
C         -1.59338       -2.30942       -3.60838
C          0.04421       -5.98814       -0.43261
H          0.64139       -4.10835        3.17675
H         -0.26298       -5.49714        3.78101
H          0.39008       -5.50950        2.14519
H         -2.32051       -4.03247        4.33709
H         -1.29188       -2.68025        3.91066
H         -2.87453       -2.86077        3.14585
H         -2.67044       -5.92670        2.92563
H         -3.30584       -4.92137        1.62191
H         -1.99793       -6.05525        1.30828
H          1.00937       -3.12745       -3.21922
H          0.67185       -4.77234       -2.69897
H          0.20184       -4.25007       -4.31428
H         -2.27352       -4.88841       -3.89373
H         -1.78585       -5.50357       -2.32231
H         -3.07041       -4.30674       -2.43062
H         -1.83444       -2.65610       -4.61290
H         -2.49395       -1.86964       -3.18070
H         -0.84650       -1.52403       -3.71294
H          0.06745       -6.75120        0.34523
H          0.15638       -6.48212       -1.39759
H          0.87012       -5.29147       -0.28281
C          5.64740        0.19886       -2.73147
C          4.50154       -2.27974        1.61723
C          4.37116       -2.91710       -0.80737
C          6.29454       -1.55384        0.06791
C          3.77151        4.27067       -0.20981
C          5.76514        3.23062       -1.24961
C          3.66682        3.51989       -2.60337
H          5.13164       -3.13071        1.87479
H          4.70643       -1.48174        2.33035
H          3.46678       -2.59187        1.74889
H          4.92493       -3.83440       -0.60912
H          3.30832       -3.14175       -0.72085
H          4.56469       -2.62457       -1.83754
H          6.59109       -0.72163        0.70539
H          6.86099       -2.43391        0.37154
H          6.58468       -1.31217       -0.95171
H          4.20289        5.23879       -0.46311
H          2.68943        4.38989       -0.20651
H          4.08644        4.01674        0.80194
H          6.12354        4.23477       -1.47500
H          6.18268        2.92746       -0.29013
H          6.16022        2.56256       -2.01112
H          4.00618        4.50059       -2.93558
H          2.57733        3.52681       -2.59290
H          3.98495        2.78703       -3.34209
H          5.21588       -0.79796       -2.80407
H          5.01524        0.89389       -3.28136
H          6.64487        0.19301       -3.17141
