87
-129.18261034
P         -1.54429       -0.31691       -0.39005
P          1.70285        0.39017        0.08612
C         -1.18955        0.92371       -1.63788
C          1.56807       -0.71792       -1.33857
C         -0.12075        0.73045       -2.50387
C          0.14709        1.71082       -3.48024
C         -0.66707        2.82917       -3.55391
C         -1.72378        3.00014       -2.68438
C         -1.98255        2.04136       -1.72496
C          2.30579       -1.87541       -1.25543
C          2.20271       -2.84594       -2.23237
C          1.33905       -2.65839       -3.28883
C          0.57626       -1.50802       -3.39046
C          0.70043       -0.50599       -2.40871
Cl         1.08385        0.41066        3.17910
Cl        -1.44973       -1.71854        2.55589
H         -2.34358        3.87924       -2.75075
H         -2.81040        2.16219       -1.04621
H          2.96148       -2.02633       -0.41339
H          2.78392       -3.75062       -2.16045
H         -0.45972        3.57625       -4.30116
H          1.24145       -3.41819       -4.04569
C         -2.26636       -4.34410       -2.35738
C         -1.34984       -4.25184       -1.31878
C         -1.16376       -3.01836       -0.70688
C         -1.85471       -1.91229       -1.14338
C         -2.75412       -2.00850       -2.17891
C         -2.96548       -3.23264       -2.78605
H         -2.42795       -5.29791       -2.83002
C         -0.60265       -5.44796       -0.84452
H         -0.46935       -2.92538        0.11104
H         -3.27689       -1.12552       -2.51199
H         -3.67031       -3.31689       -3.59690
C         -5.08517        1.00593        2.15353
C         -5.16792       -0.16199        1.42112
C         -4.09909       -0.56588        0.64358
C         -2.96003        0.20278        0.59939
C         -2.87420        1.36447        1.33148
C         -3.93451        1.78186        2.12565
H         -5.91728        1.32273        2.75889
H         -6.06310       -0.76087        1.45847
H         -4.14511       -1.48117        0.07663
H         -1.97599        1.95624        1.28715
C         -3.83726        3.04742        2.90263
C          5.65747       -0.27150        2.24035
C          5.49932        0.81584        1.40392
C          4.29627        1.01583        0.75311
C          3.26158        0.13036        0.94553
C          3.41762       -0.95468        1.77702
C          4.62200       -1.17535        2.43406
H          6.59035       -0.42434        2.75579
H          6.31086        1.51046        1.26122
H          4.15636        1.86278        0.10120
H          2.59275       -1.62994        1.93423
C          4.77288       -2.32892        3.36203
C          0.88960        4.79986       -0.64439
C          1.74912        4.12049       -1.48577
C          2.01774        2.78250       -1.26474
C          1.42151        2.13805       -0.20698
C          0.59640        2.82197        0.65600
C          0.30975        4.16472        0.44524
H          0.66486        5.83699       -0.82633
H          2.19938        4.62839       -2.32280
H          2.67125        2.23143       -1.92197
H          0.20241        2.31735        1.52160
C         -0.63092        4.88772        1.34323
Pd        -0.05007       -0.40245        1.41213
C          1.28508        1.57208       -4.43071
C         -0.36517       -1.36395       -4.53593
H          1.84870        2.50352       -4.50110
H          1.97805        0.79180       -4.11395
H          0.92803        1.32055       -5.43014
H         -1.10687       -0.58668       -4.34930
H          0.17089       -1.10777       -5.45051
H         -0.90549       -2.29490       -4.71335
H         -1.12955       -5.93210       -0.02118
H         -0.47981       -6.17957       -1.64437
H          0.39263       -5.17283       -0.49204
H         -2.84985        3.15150        3.35489
H         -4.00666        3.91172        2.25889
H         -4.57392        3.07660        3.70661
H          4.22151       -3.19783        2.99971
H          5.81926       -2.61948        3.46566
H          4.39210       -2.07870        4.35317
H         -1.65419        4.81049        0.97278
H         -0.60588        4.47472        2.35269
H         -0.37572        5.94608        1.41166
