111
-148.55120650
P         -2.21634        2.50996        0.60971
P         -0.21831        0.02950        0.55854
C         -1.48969        1.89745        2.15163
C         -0.61917        0.83011        2.12449
C         -2.01329        4.34816        0.52331
C         -1.32272        4.76565       -0.75649
C         -1.75956        2.53636        3.34502
H         -2.42423        3.38476        3.35604
C         -1.16023        2.09819        4.51322
H         -1.37271        2.59523        5.44566
C         -0.27903        1.03483        4.48209
H          0.19829        0.70116        5.38875
C         -0.00065        0.40531        3.28215
H          0.71046       -0.40493        3.23705
Pd        -1.34243        1.21714       -1.08766
Cl        -2.57539        2.39398       -2.54987
Cl        -0.37313       -0.01962       -2.69433
C         -3.46031        4.86715        0.65458
C         -4.06025        2.37697        0.52127
H         -1.16784        5.84648       -0.79550
H         -0.35013        4.27983       -0.86104
H         -1.92280        4.48843       -1.62434
H         -3.56689        5.80308        0.08698
H         -3.67041        5.13125        1.70143
H         -4.27918        1.68738       -0.30581
C         -4.49737        3.81439        0.17220
C         -4.64434        1.84846        1.81373
H         -1.40763        4.63598        1.39361
H         -5.48634        4.01462        0.60962
H         -4.62957        3.90876       -0.91577
H         -4.44335        2.53421        2.63807
H         -5.72816        1.72921        1.74404
H         -4.21344        0.87946        2.07702
C         -0.81873       -4.49520        0.55934
C         -1.06945       -3.76341        1.74818
C         -0.88318       -2.39122        1.72709
C         -0.53766       -1.73863        0.57158
C         -0.41934       -2.43221       -0.60446
C         -0.58277       -3.80489       -0.65589
O         -0.76992       -5.91428        0.59396
C         -1.50114       -4.44125        3.05821
H         -1.00318       -1.81241        2.62439
H         -0.19871       -1.87348       -1.49605
C         -0.46815       -4.51926       -2.01170
C          4.00208        1.12691       -0.73188
C          3.12574        2.12008       -0.22268
C          1.85060        1.73601        0.15823
C          1.46860        0.42058        0.11491
C          2.34540       -0.55647       -0.27495
C          3.63404       -0.24203       -0.67019
O          5.22833        1.50708       -1.33919
C          3.52020        3.60122       -0.11725
H          1.12567        2.46367        0.48174
H          2.00208       -1.57534       -0.28439
C          4.58469       -1.38113       -1.07021
C         -0.25320       -4.83423        3.86312
C         -2.35718       -3.48048        3.91481
C         -2.36564       -5.68428        2.77921
C         -1.35265       -5.77843       -2.05283
C         -0.94589       -3.59661       -3.15666
C          1.00035       -4.89245       -2.26600
C          0.52503       -6.44270        0.85160
H          0.37005       -5.53159        3.30864
H          0.35170       -3.95636        4.08912
H         -0.52926       -5.30609        4.80578
H         -2.77210       -3.99867        4.77908
H         -1.76956       -2.64623        4.29522
H         -3.18796       -3.07966        3.33464
H         -1.80301       -6.44736        2.24706
H         -2.72574       -6.12774        3.70719
H         -3.23031       -5.42146        2.17072
H         -1.32041       -6.24820       -3.03555
H         -1.02668       -6.51690       -1.32479
H         -2.38908       -5.52612       -1.83120
H         -0.99171       -4.14127       -4.09932
H         -1.94041       -3.20314       -2.94854
H         -0.27026       -2.75606       -3.30712
H          1.38211       -5.54773       -1.48669
H          1.11366       -5.40323       -3.22183
H          1.62579       -4.00045       -2.28483
H          0.84221       -7.06124        0.01224
H          1.24335       -5.63538        1.00018
H          0.49255       -7.06945        1.74268
C          5.12983        1.74699       -2.73755
C          2.76191        4.28596        1.04319
C          5.02350        3.75467        0.17642
C          3.16002        4.31772       -1.42759
C          6.05002       -1.01547       -0.77268
C          4.26958       -2.66276       -0.26446
C          4.40539       -1.68616       -2.56530
H          2.89098        3.73038        1.97170
H          3.13325        5.29778        1.20412
H          1.69565        4.36675        0.83763
H          5.29436        3.21433        1.08286
H          5.62877        3.36391       -0.63775
H          5.29133        4.80212        0.31271
H          2.09413        4.22886       -1.63532
H          3.40673        5.37774       -1.37378
H          3.69676        3.89059       -2.27108
H          6.17490       -0.75707        0.27832
H          6.71538       -1.84834       -0.99881
H          6.37580       -0.16463       -1.36549
H          3.30322       -3.08481       -0.53559
H          5.01767       -3.43226       -0.45379
H          4.26519       -2.45629        0.80545
H          4.64097       -0.81771       -3.17576
H          3.37525       -1.97008       -2.77931
H          5.05372       -2.50424       -2.87806
H          5.78282        1.05941       -3.27469
H          4.10151        1.61021       -3.07480
H          5.45302        2.76439       -2.95729
