72
-108.39239233
Cl        -1.89018        0.33286        2.79087
Cl         0.80385       -1.50659        2.65460
P          1.19085       -1.00265       -0.29889
P         -2.16271        0.24062       -0.40567
C         -3.34793       -1.24124       -0.32778
C         -4.07743       -1.21563        1.01230
C         -4.36709       -1.20422       -1.47715
C         -3.09730        1.89622       -0.18055
C         -4.44257        1.84649       -0.89734
C         -1.36057        0.42255       -2.09879
C         -1.28061       -0.82827       -2.95664
C          1.19574        0.30897       -1.55698
C          0.02108        1.05652       -2.01270
C          0.48418        2.12623       -2.90044
C          1.93176        2.10929       -2.86936
C          2.37068        0.96726       -2.09137
C         -2.52346       -2.52402       -0.40536
H         -3.37282       -1.20862        1.84362
H         -4.72209       -0.34332        1.10318
H         -3.94644       -0.78403       -2.38813
H         -5.24510       -0.61322       -1.22121
C         -3.31719        2.21084        1.29420
H         -4.33046        1.50653       -1.92701
H         -4.89703        2.83819       -0.92675
H         -2.02619        1.12754       -2.60929
H         -0.58830       -1.54340       -2.52163
H         -0.89340       -0.59219       -3.94980
H         -2.23888       -1.32453       -3.09438
H         -0.14596        2.79785       -3.48484
H          2.58556        2.78678       -3.42188
Pd        -0.53684       -0.43941        1.19572
H          3.40099        0.67785       -1.87774
C         -2.25685        3.00961       -0.80217
H         -5.14381        1.19419       -0.38048
H         -3.89137        3.13092        1.41359
H         -3.86052        1.41522        1.80046
H         -2.36855        2.34939        1.81017
H         -2.26255        2.96863       -1.89099
H         -2.63811        3.99188       -0.51752
H         -1.22727        2.93922       -0.46749
H         -4.70928       -2.09853        1.12265
H         -4.72865       -2.20793       -1.70673
H         -1.95600       -2.59144       -1.33010
H         -1.82624       -2.59522        0.42857
H         -3.17031       -3.40165       -0.35717
C          2.87881       -1.10482        0.35698
C          3.38243       -2.18864        1.03217
C          4.70046       -1.88481        1.37236
C          4.94949       -0.62517        0.88627
O          3.84056       -0.13564        0.25890
H          2.85074       -3.09811        1.25887
H          5.38779       -2.51526        1.91245
H          5.88318       -0.08429        0.97906
C          0.78103       -2.64527       -0.91546
C          0.50283       -3.67561       -0.05279
C          0.23195       -4.80102       -0.83191
C          0.35826       -4.40814       -2.14220
O          0.69328       -3.08541       -2.20831
H          0.49113       -3.60450        1.02338
H         -0.02502       -5.78488       -0.47488
H          0.21563       -5.04178       -3.00880
Fe         1.20718        2.25082       -0.89918
C          2.20260        3.86623       -0.28765
C          2.88274        2.69405        0.23672
C          1.91588        1.94183        1.00923
C          0.66729        2.67616        1.00266
C          0.85423        3.90517        0.25148
H          2.66613        4.64915       -0.89334
H          3.91963        2.40401        0.05423
H          2.10290        1.00366        1.53562
H         -0.22004        2.39012        1.57024
H          0.12275        4.70404        0.10841
