111
-148.55281231
P         -1.69795        2.75541        0.17910
P         -0.52242       -0.16244        0.46619
C         -1.47750        2.02920        1.82827
C         -1.03890        0.72757        1.94889
C         -0.50056        4.14376       -0.06698
C          0.45688        3.82737       -1.19598
C         -1.71822        2.78043        2.96115
H         -2.01902        3.81043        2.86261
C         -1.54775        2.21541        4.21313
H         -1.74042        2.80073        5.09739
C         -1.12613        0.90504        4.33069
H         -0.98923        0.46619        5.30530
C         -0.86060        0.16240        3.19459
H         -0.49903       -0.85039        3.27075
Pd        -1.59602        0.94746       -1.26507
Cl        -2.94095        2.04381       -2.67976
Cl        -1.23323       -0.86396       -2.54505
C         -1.40718        5.36308       -0.33259
C         -3.29530        3.67875        0.00971
H         -0.08870        3.64469       -2.12409
H          1.15054        4.65244       -1.37402
H          1.04419        2.93221       -0.98208
H         -1.43774        5.54793       -1.41506
H         -0.96644        6.27060        0.10671
H         -3.62503        3.51897       -1.02483
C         -2.85546        5.14250        0.18996
C         -4.35900        3.19971        0.97453
H          0.03372        4.25614        0.88552
H         -2.90939        5.40313        1.25572
H         -3.56284        5.81894       -0.31389
H         -5.29795        3.73915        0.83112
H         -4.55795        2.13349        0.84490
H         -4.05163        3.35104        2.00941
C         -0.49525       -4.68040        1.05098
C         -1.46850       -4.09273        0.19914
C         -1.48077       -2.71333        0.07144
C         -0.52410       -1.93918        0.67374
C          0.49754       -2.51359        1.38515
C          0.56357       -3.88557        1.56424
O         -0.62220       -6.03680        1.44665
C         -2.48223       -4.90165       -0.62848
H         -2.23498       -2.22603       -0.52245
H          1.25498       -1.87107        1.80244
C          1.79019       -4.45876        2.29376
C          3.59905        1.38359       -0.70703
C          2.88839        0.52515       -1.58409
C          1.63996        0.07627       -1.19095
C          1.12841        0.39052        0.03917
C          1.85000        1.14139        0.92868
C          3.10661        1.62210        0.60182
O          4.78171        2.03270       -1.15174
C          3.41810        0.12228       -2.96830
H          1.02008       -0.49306       -1.86119
H          1.40792        1.36476        1.88342
C          3.89117        2.42556        1.65019
C         -2.12683       -6.39742       -0.69047
C         -3.88689       -4.73273       -0.02734
C         -2.48611       -4.37925       -2.08275
C          1.93811       -5.97585        2.08471
C          3.07345       -3.79972        1.73974
C          1.67700       -4.15588        3.79684
C         -1.41831       -6.19730        2.60865
H         -2.19856       -6.86060        0.29078
H         -2.80024       -6.93418       -1.35824
H         -1.10816       -6.53553       -1.05120
H         -3.92467       -5.10649        0.99419
H         -4.17908       -3.68329       -0.00890
H         -4.62825       -5.27716       -0.61163
H         -3.13683       -4.98541       -2.71234
H         -2.84067       -3.35193       -2.14442
H         -1.48238       -4.41271       -2.50535
H          2.86066       -6.34611        2.53122
H          1.11226       -6.51833        2.53896
H          1.95275       -6.21773        1.02258
H          3.10985       -2.73382        1.95851
H          3.96251       -4.25051        2.18000
H          3.13359       -3.92417        0.65887
H          0.79107       -4.62047        4.22559
H          2.54675       -4.53011        4.33623
H          1.60827       -3.08288        3.97368
H         -1.49108       -7.25775        2.85092
H         -0.96765       -5.66697        3.44603
H         -2.41640       -5.79773        2.43600
C          4.55778        3.29689       -1.76428
C          4.95391        0.02092       -2.96910
C          2.87513       -1.26704       -3.37527
C          2.95076        1.15325       -4.00725
C          3.53240        1.95459        3.07836
C          5.40827        2.22661        1.48113
C          3.53205        3.91381        1.52176
H          5.29212       -0.68062       -2.20723
H          5.32330       -0.32274       -3.93498
H          5.41608        0.98312       -2.76415
H          3.34945       -1.61415       -4.29287
H          3.07237       -2.00354       -2.59675
H          1.80233       -1.24293       -3.56051
H          3.29750        0.88688       -5.00530
H          1.86255        1.20866       -4.03135
H          3.32672        2.14664       -3.77474
H          2.50756        2.21123        3.34281
H          3.65156        0.87540        3.17195
H          4.18022        2.42803        3.81577
H          5.75534        2.61037        0.52518
H          5.96127        2.74482        2.26416
H          5.66383        1.16858        1.52859
H          2.46534        4.06743        1.68247
H          3.77521        4.29509        0.53298
H          4.07290        4.51076        2.25558
H          3.49266        3.52883       -1.78209
H          5.08885        4.07125       -1.21104
H          4.94295        3.28315       -2.78373
