87
-129.18443700
P         -1.53448       -0.30450       -0.38565
P          1.69117        0.39102        0.07488
C         -1.18880        0.93090       -1.64180
C          1.56111       -0.71538       -1.35016
C         -0.12583        0.73485       -2.51435
C          0.13746        1.71370       -3.49357
C         -0.67656        2.83226       -3.56481
C         -1.72858        3.00515       -2.69004
C         -1.98191        2.04865       -1.72695
C          2.30070       -1.87172       -1.26863
C          2.20088       -2.83980       -2.24832
C          1.33825       -2.65116       -3.30545
C          0.57362       -1.50182       -3.40536
C          0.69532       -0.50170       -2.42126
Cl         1.05952        0.28322        3.27020
Cl        -1.45866       -1.71481        2.53921
H         -2.34867        3.88416       -2.75493
H         -2.80563        2.17145       -1.04360
H          2.95550       -2.02354       -0.42607
H          2.78386       -3.74347       -2.17794
H         -0.47269        3.57807       -4.31429
H          1.24289       -3.40931       -4.06424
C         -2.23321       -4.34243       -2.33970
C         -1.33682       -4.24718       -1.28401
C         -1.14787       -3.00775       -0.68505
C         -1.83900       -1.90538       -1.13041
C         -2.73220       -2.00853       -2.17070
C         -2.93255       -3.23469       -2.77748
H         -2.37724       -5.29534       -2.81978
C         -0.55385       -5.42951       -0.83362
H         -0.44979       -2.90684        0.12877
H         -3.25476       -1.12822       -2.51109
H         -3.62646       -3.32260       -3.59731
C         -5.08957        1.01157        2.14271
C         -5.16586       -0.15707        1.41077
C         -4.09251       -0.55849        0.63821
C         -2.95527        0.21311        0.59841
C         -2.87609        1.37567        1.32986
C         -3.94101        1.79073        2.11904
H         -5.92518        1.32645        2.74424
H         -6.05959       -0.75834        1.44454
H         -4.13368       -1.47432        0.07178
H         -1.97997        1.97067        1.28834
C         -3.85048        3.05725        2.89528
C          5.64556       -0.28192        2.22687
C          5.48899        0.80688        1.39207
C          4.28388        1.01357        0.74714
C          3.24708        0.13047        0.93946
C          3.40194       -0.95633        1.76887
C          4.60231       -1.17371        2.43415
H          6.58388       -0.44635        2.72867
H          6.30452        1.49554        1.24333
H          4.14590        1.86098        0.09545
H          2.57961       -1.63673        1.91689
C          4.76618       -2.35598        3.32312
C          0.89995        4.80415       -0.65784
C          1.75702        4.12007       -1.49789
C          2.01784        2.78065       -1.27637
C          1.41636        2.13955       -0.21958
C          0.59244        2.82749        0.64152
C          0.31404        4.17199        0.43032
H          0.68141        5.84256       -0.83996
H          2.21152        4.62546       -2.33416
H          2.66959        2.22597       -1.93236
H          0.19001        2.32418        1.50403
C         -0.62548        4.89978        1.32571
Pd        -0.04368       -0.38262        1.42489
C          1.27179        1.57476       -4.44840
C         -0.36767       -1.35735       -4.55090
H          1.96092        0.78796       -4.13957
H          0.91028        1.33293       -5.44863
H          1.84093        2.50322       -4.51355
H          0.16849       -1.10130       -5.46546
H         -0.90822       -2.28815       -4.72844
H         -1.10920       -0.57993       -4.36425
H          0.38747       -5.50055       -1.38047
H         -0.32070       -5.36323        0.23010
H         -1.10885       -6.35477       -0.99446
H         -4.01379        3.92078        2.24893
H         -4.59435        3.08770        3.69254
H         -2.86713        3.16167        3.35624
H          5.55373       -2.19093        4.05967
H          3.84377       -2.56588        3.86667
H          5.02594       -3.24336        2.74421
H         -0.36585        5.95711        1.39376
H         -1.64834        4.82662        0.95330
H         -0.60441        4.48760        2.33560
