58
-89.86856175
P          1.52823        0.21999        0.81164
C          1.61419        1.95686        0.36142
C          1.60915        2.94735        1.31728
C          1.67183        4.27376        0.92971
C          1.74452        4.59831       -0.41081
C          1.76233        3.60089       -1.36538
C          1.70046        2.27666       -0.97399
H          1.72446        1.48049       -1.70085
H          1.55698        2.68392        2.36098
C          3.13883       -0.55593        0.64901
C          3.24468       -1.91791        0.48329
C          4.49361       -2.49989        0.36078
C          5.62770       -1.71330        0.40768
C          5.51679       -0.34715        0.57557
C          4.26632        0.23214        0.69671
H          4.16233        1.29796        0.82404
H          2.35215       -2.52068        0.43505
C          0.93635       -0.03247        2.53830
C          0.20249       -1.36011        2.68977
C         -1.28770       -1.28863        2.38726
P         -1.71741       -0.59762        0.73007
C         -3.29151       -1.28174        0.20068
C         -4.33852       -0.44317       -0.10819
C         -5.54751       -0.97369       -0.52044
C         -5.69849       -2.34255       -0.62189
C         -4.64506       -3.18032       -0.31298
C         -3.43736       -2.64629        0.10019
H         -2.60108       -3.28798        0.32903
H         -4.20561        0.62341       -0.02811
C         -1.78390        1.20449        0.71054
C         -1.77105        1.83085       -0.51539
C         -1.79185        3.21153       -0.58854
C         -1.83021        3.95882        0.57097
C         -1.85536        3.32825        1.79876
C         -1.83576        1.94741        1.86766
H         -1.87347        1.45320        2.82373
H         -1.74120        1.23302       -1.41299
Pd         0.10409       -0.79128       -0.71018
Cl         1.78395       -0.80334       -2.19988
Cl        -1.35324       -1.82359       -2.07140
H         -1.74017       -2.28189        2.43825
H         -1.80698       -0.68124        3.12989
H          0.67600       -2.10338        2.03381
H          0.34279       -1.75073        3.70986
H          1.82820        0.01500        3.16857
H          0.29881        0.80229        2.82873
H          1.66052        5.05288        1.67410
H          1.82404        3.85184       -2.41147
H          4.57993       -3.56534        0.22428
H          6.40125        0.26751        0.60973
H         -6.36818       -0.31929       -0.76448
H         -4.76039       -4.24832       -0.39855
H         -1.77100        3.70109       -1.54824
H         -1.88898        3.91190        2.70408
H          1.78982        5.63210       -0.71227
H          6.60091       -2.16618        0.31028
H         -6.63885       -2.75765       -0.94614
H         -1.83937        5.03527        0.51771
