87
-129.18483887
P         -1.52979       -0.29509       -0.37834
P          1.68299        0.37532        0.10024
C         -1.18077        0.93644       -1.63868
C          1.55198       -0.72608       -1.33195
C         -0.11627        0.73600       -2.50804
C          0.15287        1.71201       -3.48864
C         -0.65903        2.83168       -3.56600
C         -1.71409        3.00829       -2.69569
C         -1.97186        2.05523       -1.73038
C          2.28505       -1.88674       -1.25098
C          2.18922       -2.85042       -2.23523
C          1.33652       -2.65378       -3.29859
C          0.57903       -1.50008       -3.40000
C          0.69800       -0.50415       -2.41107
Cl         1.18054        0.16004        3.22547
Cl        -1.55745       -1.61367        2.59030
H         -2.33276        3.88793       -2.76537
H         -2.79777        2.18193       -1.05058
H          2.93478       -2.04568       -0.40633
H          2.76798       -3.75673       -2.16390
H         -0.45111        3.57524       -4.31660
H          1.24358       -3.40854       -4.06107
C         -2.21576       -4.34074       -2.32232
C         -1.32842       -4.24216       -1.25933
C         -1.14306       -3.00052       -0.66378
C         -1.82912       -1.89913       -1.11952
C         -2.71315       -2.00562       -2.16731
C         -2.90978       -3.23396       -2.77079
H         -2.35657       -5.29539       -2.79989
C         -0.54989       -5.42329       -0.79817
H         -0.45000       -2.89701        0.15399
H         -3.23148       -1.12612       -2.51617
H         -3.59650       -3.32443       -3.59638
C         -5.12959        1.03708        2.07982
C         -5.19443       -0.13397        1.35075
C         -4.10742       -0.54044        0.60031
C         -2.96762        0.22818        0.57955
C         -2.89988        1.39288        1.30877
C         -3.97892        1.81341        2.07555
H         -5.97598        1.35616        2.66382
H         -6.08997       -0.73320        1.36945
H         -4.14022       -1.45812        0.03643
H         -2.00205        1.98604        1.28191
C         -3.90111        3.08309        2.84798
C          5.69678       -0.25956        2.15787
C          5.49635        0.84895        1.35932
C          4.27556        1.04096        0.74000
C          3.26444        0.12683        0.92502
C          3.46360       -0.97923        1.71884
C          4.68595       -1.19221        2.34435
H          6.64350       -0.40655        2.64920
H          6.28890        1.56613        1.22156
H          4.10419        1.90428        0.11811
H          2.65628       -1.67569        1.87535
C          4.88102       -2.36931        3.23373
C          0.88853        4.78908       -0.63666
C          1.74888        4.10425       -1.47258
C          2.00810        2.76487       -1.24909
C          1.40232        2.12409       -0.19445
C          0.57414        2.81283        0.66196
C          0.29729        4.15738        0.44877
H          0.67124        5.82752       -0.82010
H          2.20706        4.60893       -2.30727
H          2.66206        2.20976       -1.90256
H          0.16457        2.31053        1.52151
C         -0.64584        4.88663        1.33918
Pd        -0.07368       -0.38469        1.44953
C          1.29176        1.56975       -4.43756
C         -0.35323       -1.34785       -4.55200
H          1.97682        0.78077       -4.12527
H          0.93486        1.32948       -5.43980
H          1.86413        2.49646       -4.49932
H         -0.89949       -2.27450       -4.73374
H         -1.09035       -0.56511       -4.37021
H          0.19114       -1.09567       -5.46276
H         -1.10295       -6.34907       -0.96262
H          0.39703       -5.49534       -1.33511
H         -0.32770       -5.35448        0.26774
H         -2.92667        3.18804        3.32733
H         -4.05063        3.94408        2.19495
H         -4.66014        3.11823        3.63063
H          4.34924       -3.24169        2.85104
H          5.93629       -2.63342        3.31555
H          4.50634       -2.16069        4.23677
H         -1.66465        4.82729        0.95349
H         -0.64148        4.46547        2.34556
H         -0.37637        5.94059        1.41986
