87
-129.18737135
P         -1.58431       -0.32305       -0.34106
P          1.69572        0.39811        0.05923
C         -1.23831        0.93209       -1.57997
C          1.54273       -0.70156       -1.36726
C         -0.17615        0.76504       -2.46063
C          0.08661        1.77617       -3.40622
C         -0.72497        2.89798       -3.43875
C         -1.77611        3.04219       -2.55827
C         -2.02914        2.05396       -1.62769
C          2.29664       -1.85056       -1.33243
C          2.18389       -2.79480       -2.33351
C          1.29751       -2.58800       -3.36740
C          0.52079       -1.44375       -3.42206
C          0.65124       -0.47020       -2.41271
Cl         1.15147        0.28531        3.22347
Cl        -1.49775       -1.53206        2.63002
H         -2.39488        3.92387       -2.59243
H         -2.85005        2.15716       -0.93773
H          2.97749       -2.01441       -0.51379
H          2.77809       -3.69326       -2.29962
H         -0.52043        3.66850       -4.16262
H          1.19485       -3.32652       -4.14437
C         -2.05484       -4.40817       -2.26422
C         -1.18904       -4.26043       -1.18922
C         -1.06999       -3.00678       -0.60186
C         -1.79842       -1.94172       -1.07781
C         -2.66195       -2.09736       -2.13645
C         -2.79277       -3.33835       -2.73192
H         -2.14434       -5.37206       -2.73557
C         -0.36498       -5.40125       -0.70623
H         -0.39702       -2.86501        0.22692
H         -3.21554       -1.24575       -2.50003
H         -3.46255       -3.46721       -3.56628
C         -5.23110        0.86782        2.11678
C         -5.27201       -0.27347        1.34023
C         -4.17144       -0.63466        0.58627
C         -3.04037        0.14656        0.61382
C         -2.99616        1.28153        1.39046
C         -4.09535        1.66510        2.14832
H         -6.08393        1.14591        2.71228
H         -6.15844       -0.88624        1.32670
H         -4.18531       -1.52903       -0.01467
H         -2.09955        1.87744        1.41399
C         -4.02872        2.87761        3.00851
C          5.58256       -0.44374        2.27869
C          5.45626        0.70363        1.52087
C          4.27367        0.96294        0.85396
C          3.22860        0.07341        0.94603
C          3.35286       -1.07020        1.70105
C          4.53017       -1.34213        2.38717
H          6.50337       -0.64894        2.79760
H          6.27793        1.39737        1.44983
H          4.15998        1.85754        0.26410
H          2.52217       -1.75259        1.77670
C          4.65968       -2.58562        3.19451
C          1.15266        4.81495       -0.85859
C          2.05945        4.07208       -1.58937
C          2.24043        2.73079       -1.30681
C          1.51392        2.14734       -0.29581
C          0.63010        2.89103        0.45179
C          0.43096        4.23808        0.17754
H          0.99712        5.85488       -1.08994
H          2.61606        4.53345       -2.38852
H          2.92782        2.13054       -1.88166
H          0.09684        2.42672        1.26312
C         -0.57303        5.02127        0.94751
Pd        -0.06135       -0.29583        1.42780
C          1.21661        1.66549       -4.36996
C         -0.43693       -1.27218       -4.55001
H          1.91353        0.87815       -4.08072
H          0.85136        1.44101       -5.37284
H          1.77828        2.59940       -4.41938
H         -1.18291       -0.50813       -4.32897
H          0.08477       -0.98150       -5.46257
H         -0.97083       -2.20205       -4.75083
H          0.58737       -5.44179       -1.23682
H         -0.15229       -5.30785        0.35974
H         -0.87827       -6.35146       -0.86001
H         -5.02446        3.27372        3.21248
H         -3.55493        2.64716        3.96372
H         -3.44947        3.66739        2.52777
H          4.91736       -3.43480        2.56003
H          5.43530       -2.48481        3.95492
H          3.72397       -2.81774        3.70531
H         -1.57088        4.88821        0.52679
H         -0.60243        4.70198        1.99035
H         -0.33960        6.08673        0.93268
