111
-148.55190516
P         -2.44012        2.16492        1.00067
P          0.07376        0.30844        0.54923
C         -1.41555        1.67927        2.41714
C         -0.28851        0.91617        2.20449
C         -3.07840        3.89107        1.21299
C         -2.31488        4.89098        0.37242
C         -1.75170        2.06390        3.69973
H         -2.64587        2.64132        3.86707
C         -0.94835        1.69126        4.76376
H         -1.21039        1.99134        5.76523
C          0.18688        0.93454        4.54498
H          0.81095        0.64321        5.37374
C          0.51588        0.54146        3.26011
H          1.38789       -0.06540        3.07175
Pd        -1.28913        1.48739       -0.89415
Cl        -2.64327        2.84269       -2.05985
Cl        -0.08517        0.76261       -2.64690
C         -4.56973        3.74436        0.86131
C         -4.03862        1.23836        0.88330
H         -1.25013        4.88333        0.61717
H         -2.40755        4.66017       -0.68884
H         -2.69044        5.90606        0.52052
H         -4.69959        3.93997       -0.21207
H         -5.16417        4.51378        1.37724
H         -4.12523        0.91317       -0.16216
C         -5.09278        2.31747        1.19544
C         -4.04994        0.04854        1.81849
H         -2.96644        4.13011        2.27809
H         -5.34965        2.26268        2.26222
H         -6.02841        2.10626        0.65585
H         -3.24906       -0.65292        1.57379
H         -3.90181        0.36659        2.85218
H         -4.99895       -0.49041        1.76892
C         -1.19931       -4.04385        0.10059
C         -1.24427       -3.43307        1.38043
C         -0.84062       -2.11308        1.49206
C         -0.48576       -1.38696        0.38551
C         -0.55895       -1.93921       -0.86558
C         -0.94147       -3.25565       -1.04949
O         -1.37318       -5.44789       -0.02449
C         -1.68792       -4.18874        2.64281
H         -0.78739       -1.63506        2.45388
H         -0.30484       -1.31567       -1.70443
C         -1.03128       -3.81177       -2.47873
C          4.39507        0.77375       -0.79921
C          3.81321       -0.51756       -0.72755
C          2.49773       -0.61942       -0.30948
C          1.79211        0.48513        0.08943
C          2.37922        1.72252        0.11596
C          3.69457        1.89547       -0.28478
O          5.66135        0.94700       -1.41879
C          4.56255       -1.79405       -1.14043
H          1.99550       -1.57070       -0.31002
H          1.78510        2.55951        0.44103
C          4.32279        3.29518       -0.19623
C         -2.74674       -5.25487        2.30740
C         -0.46377       -4.84563        3.29809
C         -2.33283       -3.22071        3.66106
C         -1.42842       -2.69635       -3.47312
C          0.33929       -4.37020       -2.89118
C         -2.10646       -4.90839       -2.58201
C         -0.16390       -6.19034        0.07075
H         -2.34197       -6.02482        1.65531
H         -3.10910       -5.74528        3.21055
H         -3.59917       -4.80284        1.80137
H         -0.74615       -5.38113        4.20416
H          0.01166       -5.55389        2.62376
H          0.27862       -4.09450        3.56702
H         -1.60717       -2.51800        4.06776
H         -3.13946       -2.65280        3.19873
H         -2.75233       -3.76983        4.50371
H         -0.63815       -1.95591       -3.58679
H         -1.62200       -3.11044       -4.46227
H         -2.33161       -2.18473       -3.14172
H          1.09929       -3.59028       -2.85299
H          0.65493       -5.17171       -2.22755
H          0.31107       -4.76449       -3.90660
H         -2.21294       -5.25742       -3.60880
H         -1.85636       -5.76892       -1.96666
H         -3.07283       -4.53022       -2.25018
H         -0.23340       -6.89755        0.89710
H         -0.00767       -6.75513       -0.84816
H          0.68200       -5.52137        0.23450
C          5.59217        1.20654       -2.81543
C          4.34689       -2.04549       -2.64063
C          6.06565       -1.67913       -0.82956
C          4.03178       -3.01778       -0.35792
C          3.71033        4.09455        0.97657
C          5.83776        3.21045        0.06432
C          4.05010        4.05658       -1.50248
H          3.28515       -2.14365       -2.86531
H          4.73544       -1.22489       -3.23847
H          4.84617       -2.96012       -2.95940
H          6.58712       -2.60581       -1.06791
H          6.53043       -0.88282       -1.40546
H          6.22339       -1.46291        0.22655
H          4.64699       -3.89642       -0.55063
H          4.04633       -2.82819        0.71505
H          3.01338       -3.27262       -0.64803
H          2.66599        4.34322        0.79397
H          3.77146        3.52801        1.90542
H          4.24137        5.03494        1.12257
H          6.35682        2.72884       -0.76039
H          6.26981        4.20292        0.19015
H          6.04003        2.63535        0.96726
H          2.97848        4.14652       -1.67900
H          4.48254        3.54197       -2.35699
H          4.47201        5.06056       -1.46507
H          4.55391        1.21158       -3.14990
H          6.04898        2.17205       -3.03185
H          6.14592        0.44022       -3.35758
