111
-148.55410329
P         -2.58411        2.08809        0.37648
P          0.06561        0.36738        0.56278
C         -1.83136        1.76349        1.99526
C         -0.65091        1.05581        2.06484
C         -3.30701        3.79064        0.29781
C         -2.44013        4.73023       -0.51171
C         -2.43271        2.21171        3.15407
H         -3.36596        2.74757        3.09770
C         -1.84229        1.95574        4.37979
H         -2.31133        2.30519        5.28506
C         -0.65529        1.25124        4.44510
H         -0.19764        1.04979        5.39964
C         -0.05931        0.79538        3.28287
H          0.85776        0.22787        3.31518
Pd        -1.01772        1.41501       -1.18800
Cl        -2.38427        2.34052       -2.70884
Cl         0.61926        0.74360       -2.57097
C         -4.70973        3.53739       -0.28452
C         -4.09411        1.07235        0.03931
H         -2.86876        5.73431       -0.55154
H         -1.43536        4.80600       -0.08914
H         -2.33678        4.37686       -1.53825
H         -4.66157        3.64325       -1.37710
H         -5.41351        4.31154        0.05737
H         -3.97203        0.67673       -0.97795
C         -5.22767        2.11473        0.07450
C         -4.23647       -0.05428        1.03983
H         -3.38516        4.14126        1.33476
H         -5.66471        2.12798        1.08243
H         -6.04559        1.81361       -0.59756
H         -3.37988       -0.73034        0.99696
H         -4.29495        0.33594        2.05757
H         -5.13965       -0.64079        0.85599
C         -1.36170       -3.91537       -0.04188
C         -0.66670       -3.24220       -1.07879
C         -0.26992       -1.93551       -0.85688
C         -0.46307       -1.33116        0.35631
C         -1.03465       -2.01406        1.39741
C         -1.46532       -3.32099        1.24211
O         -1.98844       -5.16369       -0.29881
C         -0.36785       -3.88596       -2.44116
H          0.17833       -1.35213       -1.64219
H         -1.15291       -1.50397        2.33688
C         -2.06448       -4.06099        2.44832
C          4.57857        0.75635        0.14859
C          4.00341       -0.51165        0.41902
C          2.62638       -0.59328        0.53978
C          1.84284        0.52898        0.47491
C          2.40172        1.77032        0.32225
C          3.77282        1.92322        0.19297
O          5.95041        0.85244       -0.20650
C          4.83894       -1.79592        0.53652
H          2.14102       -1.54558        0.66537
H          1.74435        2.62217        0.28320
C          4.35590        3.33800        0.05345
C          0.94850       -3.32529       -3.02722
C         -0.18582       -5.40888       -2.31075
C         -1.51352       -3.56794       -3.41379
C         -1.45121       -3.54061        3.76827
C         -3.58216       -3.82624        2.48908
C         -1.76297       -5.56901        2.37668
C         -3.32294       -5.05177       -0.77756
H          1.23213       -3.86652       -3.92947
H          0.85523       -2.27551       -3.30080
H          1.76244       -3.42111       -2.30937
H          0.08994       -5.85389       -3.26647
H          0.59745       -5.64091       -1.58985
H         -1.10033       -5.89127       -1.97537
H         -1.62478       -2.49093       -3.53794
H         -1.32523       -4.00318       -4.39482
H         -2.46062       -3.95800       -3.04843
H         -1.77659       -4.14880        4.61198
H         -0.36270       -3.57586        3.73045
H         -1.75494       -2.51592        3.97774
H         -3.80581       -2.76389        2.58175
H         -4.06188       -4.18801        1.58289
H         -4.03380       -4.34035        3.33711
H         -0.68996       -5.74269        2.30261
H         -2.12994       -6.08480        3.26367
H         -2.23551       -6.02709        1.51127
H         -3.39479       -5.49303       -1.77143
H         -3.99505       -5.59588       -0.11413
H         -3.62464       -4.00448       -0.82252
C          6.19460        0.74105       -1.60319
C          4.15829       -2.80318        1.49165
C          4.96693       -2.44670       -0.84917
C          6.23392       -1.50054        1.11665
C          3.48826        4.36336        0.81830
C          5.77284        3.41814        0.65013
C          4.38220        3.72988       -1.43186
H          4.80781       -3.65796        1.67896
H          3.93399       -2.33692        2.45069
H          3.23105       -3.19287        1.07400
H          5.46012       -1.78160       -1.55378
H          5.54432       -3.36931       -0.79585
H          3.98396       -2.68627       -1.25355
H          6.80190       -2.41959        1.25888
H          6.81037       -0.85704        0.45688
H          6.15029       -1.00058        2.08101
H          3.34086        4.05163        1.85201
H          3.96622        5.34269        0.82898
H          2.51099        4.49056        0.35507
H          6.15877        4.43636        0.60802
H          5.76889        3.09953        1.69197
H          6.46830        2.78108        0.10965
H          4.77666        4.73707       -1.56356
H          3.37835        3.70156       -1.85508
H          5.00218        3.04798       -2.00869
H          6.85233       -0.10684       -1.79356
H          5.25671        0.60296       -2.14285
H          6.69081        1.64297       -1.96108
