111
-148.55680679
P         -2.59110        1.89690        1.07090
P          0.16670        0.47229        0.45355
C         -1.46177        1.49469        2.43191
C         -0.23513        0.93259        2.15086
C         -3.50315        3.47630        1.38875
C         -2.92091        4.63219        0.60502
C         -1.81955        1.74520        3.74139
H         -2.78774        2.16502        3.95919
C         -0.94056        1.44008        4.76633
H         -1.21926        1.63581        5.78890
C          0.29161        0.88387        4.48112
H          0.97489        0.64446        5.27926
C          0.64323        0.62440        3.16886
H          1.59329        0.17302        2.93050
Pd        -1.34348        1.64607       -0.85741
Cl        -3.02763        2.64014       -1.95409
Cl        -0.04311        1.24965       -2.64355
C         -4.95191        3.10662        1.02172
C         -4.01314        0.72504        0.89045
H         -1.86966        4.79188        0.85612
H         -2.97547        4.44226       -0.46734
H         -3.46211        5.56054        0.80183
H         -5.11877        3.34627       -0.03757
H         -5.66258        3.73250        1.58284
H         -4.04777        0.45220       -0.17290
C         -5.23026        1.59451        1.26022
C         -3.83060       -0.50369        1.75475
H         -3.42458        3.66867        2.46617
H         -5.47270        1.43056        2.31917
H         -6.11920        1.26632        0.70047
H         -2.93361       -1.05703        1.47018
H         -3.72500       -0.22622        2.80517
H         -4.68413       -1.18064        1.67308
C         -1.22440       -3.80836       -0.26313
C         -0.97190       -3.36174        1.05927
C         -0.52987       -2.06228        1.24040
C         -0.39786       -1.20647        0.17902
C         -0.72611       -1.60653       -1.08837
C         -1.18952       -2.88556       -1.33952
O         -1.47600       -5.18405       -0.51091
C         -1.14232       -4.27276        2.28463
H         -0.27827       -1.69879        2.22096
H         -0.60603       -0.89572       -1.88682
C         -1.63072       -3.24697       -2.76627
C          4.60529        0.65684       -0.53715
C          4.07268       -0.46625        0.15011
C          2.71365       -0.48491        0.41609
C          1.91540        0.58476        0.10442
C          2.44726        1.72331       -0.44071
C          3.79723        1.80735       -0.74117
O          5.91129        0.59717       -1.08775
C          4.91163       -1.66383        0.62747
H          2.25644       -1.35351        0.86008
H          1.78654        2.54663       -0.65359
C          4.33007        3.14457       -1.28282
C          0.16677       -5.03689        2.53426
C         -1.47453       -3.44240        3.54568
C         -2.30447       -5.26104        2.07885
C         -2.21780       -2.00734       -3.48103
C         -0.41549       -3.74471       -3.56297
C         -2.73515       -4.31921       -2.75330
C         -0.30951       -5.94068       -0.80964
H          0.42737       -5.66079        1.68285
H          0.99117       -4.34408        2.70226
H          0.08243       -5.68063        3.40944
H         -1.71444       -4.09449        4.38521
H         -0.63399       -2.82230        3.85388
H         -2.33338       -2.79533        3.37024
H         -3.22793       -4.72647        1.85844
H         -2.10625       -5.93940        1.25259
H         -2.46700       -5.86616        2.97041
H         -3.00120       -1.54757       -2.87901
H         -1.45552       -1.25591       -3.68059
H         -2.65225       -2.28371       -4.44133
H          0.35627       -2.97656       -3.60704
H          0.02286       -4.62742       -3.10327
H         -0.69616       -4.00026       -4.58439
H         -3.09113       -4.52740       -3.76196
H         -2.37627       -5.25469       -2.33192
H         -3.58375       -3.98806       -2.15561
H         -0.22037       -6.76629       -0.10367
H         -0.38940       -6.35840       -1.81300
H          0.57905       -5.31103       -0.74773
C          5.92863        0.06866       -2.40350
C          6.42128       -1.36822        0.60455
C          4.53984       -1.99924        2.08924
C          4.61146       -2.88422       -0.25894
C          5.86503        3.23239       -1.22292
C          3.85947        3.32839       -2.73534
C          3.77954        4.30412       -0.42330
H          6.77927       -1.22102       -0.41157
H          6.64446       -0.46492        1.17121
H          6.98945       -2.19104        1.03783
H          4.66677       -1.12568        2.72810
H          3.50796       -2.33496        2.17856
H          5.17415       -2.79529        2.47844
H          5.17441       -3.75556        0.07467
H          3.55202       -3.13739       -0.22789
H          4.87590       -2.69155       -1.29685
H          6.22213        3.03367       -0.21305
H          6.32811        2.50812       -1.88873
H          6.21388        4.22141       -1.51906
H          4.19538        4.28441       -3.13595
H          4.24781        2.54052       -3.37764
H          2.77209        3.30068       -2.79866
H          4.20591        5.25654       -0.73734
H          4.02743        4.15508        0.62725
H          2.69757        4.39159       -0.50580
H          6.95580        0.04474       -2.76804
H          5.52164       -0.94106       -2.40656
H          5.32651        0.69027       -3.06398
