59
-75.80340337
Cl         1.70538        0.10468        2.36981
P          1.59846       -0.09240       -0.88701
P         -1.57540       -0.13396       -0.77738
C          0.58207        0.24208       -2.39150
H          0.32746        1.30417       -2.42112
H          1.18007        0.02211       -3.28150
C         -0.65755       -0.60154       -2.30777
H         -0.40146       -1.66256       -2.24543
H         -1.31723       -0.46775       -3.17110
C          2.65332       -1.58559       -1.22866
H          2.62593       -1.67748       -2.32321
C          2.94333        1.15160       -0.57276
H          2.93184        1.33630        0.50845
C         -2.96925       -1.28905       -0.39910
H         -3.14797       -1.20212        0.67994
C         -2.57010        1.39649       -1.11338
H         -2.24584        1.76491       -2.09412
C          4.06032       -1.13432       -0.80391
H          4.23093       -1.40723        0.24474
H          4.82684       -1.67734       -1.37754
C          4.22748        0.39953       -0.96440
H          4.46988        0.63414       -2.00997
H          5.08123        0.76622       -0.37451
C         -4.13052       -0.65278       -1.18056
H         -4.09727       -1.01508       -2.21786
H         -5.09681       -0.99436       -0.77801
C         -4.03236        0.89800       -1.16203
H         -4.56195        1.27740       -0.27777
H         -4.55888        1.33286       -2.02444
C          2.16772       -2.89325       -0.60268
H          2.81436       -3.71094       -0.95018
H          1.17451       -3.12740       -1.00706
C          2.74617        2.46527       -1.32165
H          3.67776        3.04634       -1.27423
H          2.59707        2.24800       -2.38721
C         -2.66710       -2.73714       -0.75949
H         -3.59185       -3.32728       -0.69508
H         -2.36679       -2.78767       -1.81385
C         -2.32402        2.45005       -0.03963
H         -2.67275        2.05707        0.92491
H         -1.24426        2.59400        0.09022
C          2.11972       -2.90427        0.91749
H          3.11042       -2.78543        1.35778
H          1.70880       -3.83957        1.30494
H          1.50007       -2.09686        1.30424
C          1.59475        3.29442       -0.77689
H          1.46470        4.22989       -1.32577
H          1.75228        3.54749        0.27334
H          0.65453        2.74792       -0.83458
C         -1.59712       -3.34346        0.13398
H         -0.68583       -2.74599        0.11059
H         -1.33682       -4.36167       -0.16371
H         -1.92417       -3.37670        1.17502
C         -2.99329        3.78186       -0.34476
H         -2.80395        4.52317        0.43493
H         -2.63126        4.19680       -1.28740
H         -4.07523        3.67221       -0.43665
Cl        -1.54486        0.17086        2.41099
Pd         0.06028        0.10309        0.84420
