64
-97.21583713
Cl        -1.48060       -1.00772       -2.76233
Cl         1.46017       -1.99453       -2.72610
P          1.93032       -0.63439        0.24538
C          2.18090       -2.29505        1.02482
C          3.68652       -0.23118       -0.19329
P         -1.25285       -0.07889        0.44935
C          1.30430        0.60510        1.43342
C         -0.11737        0.86706        1.53425
C         -0.30938        1.95652        2.48179
C          1.00195        2.39247        2.92847
C          1.99982        1.55958        2.28080
H         -1.26655        2.34583        2.83365
H          1.20177        3.18797        3.64975
Pd         0.15349       -0.95228       -1.22375
H          3.08202        1.62633        2.40909
C         -4.98237        2.18806       -0.89398
C         -4.06900        2.81377       -0.06969
C         -2.93622        2.13665        0.34175
C         -2.71247        0.84333       -0.07396
C         -3.62714        0.21701       -0.88988
C         -4.76356        0.88836       -1.30413
H         -5.86603        2.71393       -1.21707
H         -4.23727        3.82838        0.25242
H         -2.21908        2.61990        0.98045
H         -3.44478       -0.79620       -1.20934
H         -5.47425        0.39717       -1.94834
C         -2.62453       -3.90036        2.48613
C         -2.35588       -2.77466        3.24059
C         -1.94604       -1.60936        2.61742
C         -1.80683       -1.58232        1.24924
C         -2.07867       -2.69844        0.49205
C         -2.48830       -3.86440        1.11196
H         -2.94327       -4.80874        2.97090
H         -2.46371       -2.80316        4.31244
H         -1.72711       -0.72185        3.18991
H         -1.97140       -2.64896       -0.57992
H         -2.70052       -4.74167        0.52319
C          3.95686       -0.40539       -1.67280
H          3.86661        0.80687        0.11596
C          4.48078       -1.22356        0.67873
H          4.69301       -0.77332        1.65968
C          3.69497       -2.54810        0.87760
H          5.46145       -1.41803        0.22004
C          1.70643       -2.27700        2.46172
H          1.59833       -3.01574        0.43463
H          4.06482       -3.08905        1.76039
H          3.88237       -3.21463        0.02327
H          2.25962       -1.53327        3.03877
H          0.64750       -2.02001        2.52704
H          1.84858       -3.24685        2.94432
H          3.75253       -1.43265       -1.97867
H          3.33039        0.24590       -2.28378
H          4.99975       -0.19070       -1.91627
Fe         0.83270        2.49832        0.87500
C          2.16098        3.31989       -0.44371
C          1.26955        4.33520        0.09167
C         -0.09499        3.96513       -0.24401
C         -0.04827        2.70259       -0.95886
C          1.34026        2.30533       -1.07872
H          3.25202        3.32462       -0.38742
H          1.57574        5.24366        0.61561
H         -0.99269        4.54444       -0.01733
H         -0.89938        2.16855       -1.38600
H          1.69956        1.42819       -1.61790
