171
-217.83659694
P         -1.54211        0.19255       -0.20460
P          1.68724       -0.70135        0.19216
C         -0.74343        0.70927       -1.73651
C          0.82451       -1.92590       -0.81789
C          0.00426       -0.22205       -2.44600
C          0.66013        0.17804       -3.62553
C          0.51052        1.48310       -4.06714
C         -0.25100        2.39008       -3.35948
C         -0.87643        1.99755       -2.19263
C          0.85830       -3.20682       -0.31917
C          0.16847       -4.22096       -0.95515
C         -0.56824       -3.93699       -2.08484
C         -0.62889       -2.65106       -2.59466
C          0.08860       -1.62147       -1.95685
Cl         1.16900       -0.26598        3.40541
Cl        -1.89236       -0.98810        2.93493
C         -1.47732       -2.38992       -3.79000
C          1.49225       -0.78775       -4.39550
H         -0.35378        3.40322       -3.71246
H         -1.47236        2.69955       -1.63603
H          1.41933       -3.40756        0.58178
H          0.19781       -5.22445       -0.56317
H          0.99538        1.78697       -4.97920
H         -1.11927       -4.71923       -2.57929
C         -4.61348       -2.97110       -1.23910
C         -3.78265       -3.18323       -0.14632
C         -2.86327       -2.19292        0.17096
C         -2.76721       -1.05781       -0.59293
C         -3.57951       -0.87565       -1.68550
C         -4.52965       -1.83075       -2.02832
H         -5.35677       -3.71073       -1.47237
H         -2.22487       -2.29182        1.02956
H         -3.45145        0.00948       -2.28347
C         -3.75895        3.76988        1.54017
C         -4.06440        3.32355        0.26189
C         -3.37483        2.21880       -0.22184
C         -2.40619        1.60283        0.53359
C         -2.12922        2.05841        1.80155
C         -2.80562        3.14713        2.33352
H         -4.28074        4.62431        1.93039
H         -3.58607        1.83569       -1.20397
H         -1.38749        1.55703        2.39295
C          5.73184       -2.43714        1.25701
C          5.27939       -2.51448       -0.05422
C          4.02013       -1.99914       -0.33628
C          3.26506       -1.42201        0.65542
C          3.73079       -1.35134        1.94305
C          4.97770       -1.86388        2.27330
H          6.70157       -2.83500        1.49374
H          3.61452       -2.04544       -1.33280
H          3.10243       -0.89853        2.68735
C          2.81121        3.41937       -1.34173
C          1.82961        3.33138       -0.36097
C          1.45186        2.06563        0.06852
C          2.04041        0.94036       -0.46170
C          3.01910        1.05089       -1.41848
C          3.42606        2.29537       -1.88043
H          3.12139        4.38928       -1.67898
H          0.70660        1.96290        0.83671
H          3.49489        0.15828       -1.78609
Pd        -0.16004       -0.42413        1.60443
C         -3.69507       -5.68791       -0.24231
C         -3.90573       -4.47167        0.67829
C         -5.30594       -4.53418        1.31389
C         -2.85266       -4.52727        1.80326
H         -4.44484       -5.72352       -1.03167
H         -2.71385       -5.64682       -0.71423
H         -3.75953       -6.61889        0.32059
H         -6.08539       -4.54525        0.55287
H         -5.41914       -5.43175        1.92161
H         -5.47564       -3.66873        1.95419
H         -2.98291       -3.70365        2.50487
H         -2.93715       -5.45591        2.36726
H         -1.84253       -4.47788        1.39711
C         -5.59343       -2.88174       -4.06379
C         -5.51361       -1.61580       -3.18808
C         -5.08129       -0.43916       -4.08605
C         -6.90245       -1.30701       -2.60231
H         -6.26414       -2.72600       -4.90868
H         -4.61324       -3.14343       -4.46020
H         -5.96863       -3.73588       -3.50215
H         -5.09319        0.50231       -3.53800
H         -4.07767       -0.59613       -4.48055
H         -5.75806       -0.33043       -4.93344
H         -7.25847       -2.13200       -1.98582
H         -6.86694       -0.41456       -1.97758
H         -7.63254       -1.13776       -3.39358
C         -6.44963        4.10394        0.18832
C         -5.11499        4.06180       -0.57889
C         -5.35586        3.36119       -1.93090
C         -4.62253        5.49486       -0.84979
H         -6.79333        3.09519        0.41663
H         -6.35165        4.64520        1.12844
H         -7.22207        4.59857       -0.40035
H         -5.70294        2.33855       -1.78416
H         -6.11468        3.88750       -2.50977
H         -4.44532        3.33617       -2.52941
H         -5.33955        6.04611       -1.45788
H         -4.47895        6.04492        0.07964
H         -3.67005        5.48023       -1.37958
C         -1.46146        2.81531        4.47168
C         -2.54325        3.65258        3.75945
C         -3.84494        3.55548        4.57616
C         -2.07281        5.11698        3.70420
H         -1.76125        1.77037        4.54918
H         -0.51204        2.86182        3.93991
H         -1.28994        3.18419        5.48265
H         -4.20336        2.52667        4.60531
H         -3.68780        3.88785        5.60212
H         -4.63169        4.17174        4.14266
H         -1.16417        5.20661        3.11078
H         -2.82919        5.76001        3.25579
H         -1.86165        5.49700        4.70357
C          5.49050       -3.08939       -2.52426
C          6.16543       -3.14249       -1.13899
C          6.43694       -4.61510       -0.78236
C          7.49626       -2.37155       -1.21872
H          5.28639       -2.06090       -2.82199
H          6.13380       -3.53120       -3.28510
H          4.55159       -3.64282       -2.52542
H          5.50228       -5.17005       -0.70317
H          7.05112       -5.09447       -1.54448
H          6.95887       -4.70162        0.16997
H          8.04206       -2.42336       -0.27744
H          8.13810       -2.78111       -1.99855
H          7.31903       -1.32037       -1.44525
C          4.53949       -1.13677        4.67261
C          5.53340       -1.80710        3.70333
C          6.84159       -0.99515        3.70790
C          5.80722       -3.23860        4.19975
H          4.94552       -1.10553        5.68349
H          4.32761       -0.11135        4.37067
H          3.59870       -1.68537        4.71190
H          7.25005       -0.91895        4.71545
H          7.59804       -1.45892        3.07589
H          6.66844        0.01467        3.33628
H          6.18436       -3.23148        5.22225
H          4.89399       -3.83309        4.18073
H          6.54596       -3.74014        3.57573
C         -0.29414        4.61882        0.03993
C          1.21987        4.57578        0.30471
C          1.84155        5.87800       -0.23598
C          1.47994        4.50839        1.82129
H         -0.75308        5.48088        0.52346
H         -0.49638        4.68761       -1.02829
H         -0.78255        3.72493        0.42123
H          1.40554        6.74708        0.25666
H          2.91651        5.90319       -0.05819
H          1.66329        5.98349       -1.30599
H          1.10122        5.39822        2.32324
H          0.99656        3.64048        2.26696
H          2.54806        4.43630        2.02502
C          5.86765        1.85309       -2.18952
C          4.59417        2.38399       -2.87385
C          4.84531        3.83342       -3.33181
C          4.28785        1.53100       -4.11738
H          5.74538        0.81460       -1.88324
H          6.72413        1.90563       -2.86138
H          6.09881        2.43773       -1.29934
H          5.65628        3.87387       -4.05893
H          3.95678        4.25373       -3.80281
H          5.12664        4.46883       -2.49233
H          4.15780        0.48183       -3.85624
H          3.37675        1.87668       -4.60368
H          5.09958        1.59275       -4.84203
H         -2.47791       -2.79713       -3.64312
H          0.86759       -1.45633       -4.98837
H         -1.05422       -2.85753       -4.68020
H         -1.58245       -1.32206       -3.98459
H          2.09924       -1.39949       -3.72598
H          2.16738       -0.27469       -5.08140
