171
-217.84658869
P         -1.61678        0.36744       -0.31417
P          1.64370       -0.46690       -0.29173
C         -0.87336        1.25922       -1.68231
C          0.88976       -1.46333       -1.58454
C         -0.09461        0.59276       -2.62135
C          0.52363        1.34108       -3.64129
C          0.31497        2.70920       -3.69847
C         -0.47827        3.34747       -2.76843
C         -1.06580        2.61691       -1.75405
C          1.07491       -2.82382       -1.53707
C          0.44939       -3.64415       -2.45485
C         -0.37633       -3.09173       -3.41070
C         -0.57803       -1.72312       -3.47597
C          0.07954       -0.88438       -2.55552
Cl         1.60731        0.35866        2.82784
Cl        -1.61221       -0.49509        2.81406
C         -1.48517       -1.16981       -4.51895
C          1.37525        0.68370       -4.67042
H         -0.63980        4.41101       -2.83286
H         -1.67932        3.10617       -1.01442
H          1.71117       -3.24833       -0.77767
H          0.60125       -4.71051       -2.41826
H          0.78298        3.27611       -4.48553
H         -0.87965       -3.72744       -4.11960
C         -3.98186       -3.27368       -1.56348
C         -2.96787       -3.42246       -0.62548
C         -2.25307       -2.28958       -0.25950
C         -2.52949       -1.07735       -0.83976
C         -3.51652       -0.95054       -1.78573
C         -4.27268       -2.05412       -2.16300
H         -4.57735       -4.13061       -1.81851
H         -1.48170       -2.34025        0.48894
H         -3.69545        0.01941       -2.21787
C         -4.28835        3.09109        2.14263
C         -4.87310        2.13213        1.32394
C         -4.03171        1.31332        0.58450
C         -2.66917        1.46061        0.65326
C         -2.10782        2.41306        1.46761
C         -2.91009        3.23746        2.24664
H         -4.91718        3.74313        2.71873
H         -4.44568        0.54506       -0.04430
H         -1.03568        2.49564        1.50499
C          4.56596       -2.82947        2.24908
C          3.21722       -3.16600        2.29384
C          2.34098       -2.45208        1.48747
C          2.79827       -1.43512        0.68767
C          4.13035       -1.10736        0.66582
C          5.04546       -1.80196        1.44420
H          5.25781       -3.37489        2.86133
H          1.28803       -2.67861        1.49698
H          4.45896       -0.29091        0.04669
C          3.76543        3.31086       -1.58017
C          2.80871        3.38575       -0.57497
C          2.14657        2.21736       -0.22451
C          2.43479        1.03462       -0.85812
C          3.38480        0.97440       -1.84751
C          4.07455        2.12006       -2.22732
H          4.30406        4.19708       -1.85800
H          1.41661        2.22342        0.56675
H          3.59368        0.02198       -2.30434
Pd        -0.00014       -0.08455        1.31163
C         -1.42498       -4.76696        0.88108
C         -2.69427       -4.79350        0.00682
C         -2.49303       -5.84343       -1.10240
C         -3.89279       -5.18875        0.88652
H         -0.56049       -4.45133        0.29787
H         -1.54012       -4.08690        1.72476
H         -1.21174       -5.75648        1.28503
H         -1.67812       -5.55223       -1.76409
H         -2.25072       -6.81737       -0.67752
H         -3.39022       -5.96123       -1.70848
H         -4.80737       -5.25435        0.29794
H         -3.72765       -6.15627        1.36022
H         -4.05292       -4.45016        1.67183
C         -6.76299       -2.10690       -2.35315
C         -5.45119       -1.93846       -3.14032
C         -5.35125       -3.03398       -4.21960
C         -5.47168       -0.56735       -3.84482
H         -7.62773       -2.02436       -3.01131
H         -6.80403       -3.07962       -1.86382
H         -6.85044       -1.34162       -1.58200
H         -4.40614       -2.96490       -4.75673
H         -5.41819       -4.03074       -3.78607
H         -6.15782       -2.93743       -4.94625
H         -5.61946        0.24175       -3.13023
H         -4.54038       -0.38791       -4.38113
H         -6.28591       -0.51624       -4.56756
C         -6.74287        0.50208        1.67642
C         -6.39160        1.93115        1.22119
C         -6.83271        2.13029       -0.24094
C         -7.16086        2.93067        2.10568
H         -6.41458        0.33387        2.70187
H         -7.81836        0.33139        1.63280
H         -6.26129       -0.24445        1.04577
H         -7.91100        2.00946       -0.34336
H         -6.56949        3.12856       -0.59002
H         -6.35326        1.40832       -0.90074
H         -6.95129        3.95840        1.80963
H         -8.23621        2.77529        2.01922
H         -6.89418        2.81116        3.15561
C         -2.58861        5.69053        2.61989
C         -2.31411        4.28989        3.19283
C         -0.79204        4.10671        3.35506
C         -2.95713        4.15978        4.58742
H         -2.17358        6.46505        3.26461
H         -2.14063        5.79671        1.63189
H         -3.65885        5.87081        2.52269
H         -0.55394        3.10290        3.70692
H         -0.27488        4.27388        2.41244
H         -0.38994        4.81726        4.07699
H         -4.02606        4.36561        4.55783
H         -2.81865        3.15277        4.98052
H         -2.50701        4.86077        5.29015
C          2.14241       -5.42547        2.30286
C          2.66640       -4.28341        3.19080
C          1.51646       -3.72594        4.05354
C          3.74850       -4.84570        4.13244
H          1.35919       -5.07282        1.63380
H          2.94420       -5.83547        1.68905
H          1.73025       -6.23371        2.90670
H          1.13608       -4.48620        4.73535
H          1.85803       -2.87867        4.64766
H          0.68294       -3.38701        3.43995
H          4.16231       -4.06042        4.76485
H          3.33180       -5.61221        4.78575
H          4.56219       -5.30252        3.56961
C          7.04565       -1.53895       -0.04507
C          6.52464       -1.39362        1.39712
C          7.38944       -2.27137        2.32163
C          6.65724        0.07335        1.84837
H          6.49681       -0.89494       -0.73116
H          8.09997       -1.27025       -0.10826
H          6.93710       -2.56637       -0.39194
H          7.06847       -2.18290        3.35936
H          7.33527       -3.32012        2.03015
H          8.43564       -1.96940        2.27367
H          6.26614        0.20182        2.85739
H          7.70007        0.38991        1.84639
H          6.10501        0.74244        1.18927
C          2.70396        4.46437        1.68523
C          2.48522        4.68490        0.17583
C          1.01890        5.06890       -0.08882
C          3.38515        5.84915       -0.28011
H          2.48652        5.37175        2.24833
H          2.06368        3.67212        2.07017
H          3.73704        4.18145        1.88591
H          0.34304        4.26374        0.19448
H          0.73848        5.95952        0.47324
H          0.86359        5.27596       -1.14687
H          4.43711        5.62175       -0.10833
H          3.24523        6.06212       -1.33974
H          3.14892        6.75868        0.27216
C          6.53107        2.43634       -2.57956
C          5.19971        2.08975       -3.27139
C          4.90709        3.11986       -4.37855
C          5.33714        0.69894       -3.92146
H          6.49940        3.43251       -2.13955
H          6.74648        1.72581       -1.78158
H          7.35841        2.40961       -3.28848
H          4.87369        4.13332       -3.98092
H          5.67722        3.09216       -5.14924
H          3.94817        2.91632       -4.85344
H          6.12573        0.70027       -4.67382
H          5.59291       -0.05797       -3.18036
H          4.41210        0.40099       -4.41340
H         -2.39944       -1.75983       -4.58721
H          0.80160        0.47296       -5.57385
H         -1.00601       -1.18113       -5.49884
H         -1.77355       -0.14208       -4.29449
H          1.78615       -0.25786       -4.30339
H          2.21293        1.32302       -4.95001
