111
-148.54840443
P         -1.91714        2.59588        0.67588
P         -0.24814       -0.08975        0.48633
C         -1.26422        1.84794        2.18372
C         -0.53709        0.68116        2.10050
C         -1.24404        4.30992        0.48681
C         -0.23393        4.38339       -0.63843
C         -1.41693        2.48715        3.39710
H         -1.96787        3.41262        3.44495
C         -0.84004        1.95022        4.53482
H         -0.95969        2.44638        5.48410
C         -0.09364        0.79105        4.44943
H          0.37306        0.38266        5.33071
C          0.06871        0.16303        3.22767
H          0.69132       -0.71366        3.14050
Pd        -1.43054        1.18540       -1.07517
Cl        -2.41029        2.65858       -2.45348
Cl        -0.66884       -0.21595       -2.65553
C         -2.50841        5.16236        0.26796
C         -3.73045        2.95986        0.71744
H         -0.70123        4.14462       -1.59490
H          0.19865        5.38287       -0.72449
H          0.57919        3.66976       -0.48922
H         -2.65775        5.29883       -0.81189
H         -2.36412        6.17428        0.67576
H         -4.11329        2.67432       -0.27165
C         -3.77046        4.49047        0.88069
C         -4.43755        2.18377        1.80797
H         -0.77372        4.55619        1.44801
H         -3.83268        4.73170        1.95072
H         -4.68925        4.89869        0.43271
H         -4.30277        1.10724        1.67876
H         -4.04497        2.44598        2.79144
H         -5.50968        2.39343        1.81535
C         -1.05516       -4.59806        0.57891
C         -1.26710       -3.81898        1.74390
C         -1.00043       -2.46142        1.68275
C         -0.61054       -1.85705        0.51380
C         -0.53916       -2.59253       -0.64128
C         -0.77520       -3.95579       -0.65254
O         -1.10218       -6.01637        0.64438
C         -1.75707       -4.42461        3.06932
H         -1.10967       -1.85294        2.56099
H         -0.33151       -2.07369       -1.55740
C         -0.70696       -4.72329       -1.98275
C          3.92661        1.19887       -0.82674
C          3.35106        0.04098       -1.40856
C          2.08992       -0.34795       -0.99114
C          1.42440        0.33585       -0.00873
C          2.00894        1.41277        0.60830
C          3.28146        1.83696        0.26320
O          5.13108        1.73509       -1.35524
C          4.04841       -0.75819       -2.52035
H          1.59782       -1.18206       -1.45477
H          1.45257        1.92586        1.37311
C          3.93891        2.96623        1.07411
C         -2.67257       -5.63757        2.82199
C         -0.54509       -4.83818        3.91787
C         -2.58734       -3.39291        3.86732
C         -1.73464       -5.86918       -2.00678
C         -1.03556       -3.79464       -3.17399
C          0.71115       -5.28031       -2.17873
C          0.14040       -6.62601        0.97070
H         -3.51124       -5.36103        2.18393
H         -2.13654       -6.44769        2.33431
H         -3.07224       -6.02469        3.75895
H          0.08630       -3.97637        4.13301
H         -0.86187       -5.26985        4.86697
H          0.06629       -5.57392        3.40103
H         -1.97144       -2.57140        4.23025
H         -3.38543       -2.97845        3.25191
H         -3.04523       -3.85745        4.74036
H         -1.51939       -6.61003       -1.24045
H         -2.73942       -5.48707       -1.82965
H         -1.73026       -6.37955       -2.96956
H         -1.11569       -4.36522       -4.09888
H         -1.98269       -3.27964       -3.01598
H         -0.25928       -3.04638       -3.32742
H          1.44542       -4.47566       -2.17147
H          0.97520       -5.97568       -1.38622
H          0.79604       -5.80673       -3.12907
H          0.40268       -7.35100        0.20027
H          0.92598       -5.87311        1.04637
H          0.05234       -7.15629        1.91859
C          4.93632        2.73628       -2.34615
C          5.57445       -0.76888       -2.32032
C          3.58046       -2.23142       -2.51580
C          3.69365       -0.14188       -3.88231
C          5.46640        2.78291        1.13342
C          3.59370        4.32588        0.44838
C          3.42724        2.95545        2.53339
H          6.06418       -1.38457       -3.07436
H          5.99103        0.23272       -2.39275
H          5.82984       -1.16691       -1.33884
H          4.17089       -2.82736       -3.21140
H          3.68725       -2.67071       -1.52428
H          2.53982       -2.32136       -2.82367
H          4.02616        0.89107       -3.94663
H          4.15945       -0.69707       -4.69601
H          2.61518       -0.15241       -4.03919
H          5.92849        3.54284        1.76307
H          5.71963        1.80481        1.54107
H          5.91379        2.85784        0.14548
H          3.91127        4.37680       -0.59005
H          2.51948        4.50189        0.47637
H          4.07889        5.13792        0.98936
H          3.98444        3.66555        3.14398
H          3.54425        1.96749        2.97802
H          2.37687        3.23664        2.59548
H          5.42145        2.43090       -3.27311
H          3.87178        2.89158       -2.52642
H          5.39102        3.67058       -2.01750
