105
-153.05777709
Cl         3.18782        1.20042       -1.07408
Pd         0.93699        1.09726       -1.09062
P         -1.39646        0.89082       -1.26497
N         -1.54451       -0.74710       -1.88283
C         -0.46930       -1.62582       -1.62012
C         -0.33498       -2.27361       -0.36542
C          0.70817       -3.19175       -0.15711
C          0.79851       -3.88917        1.17754
C          2.10829       -4.66175        1.39597
C          2.48613       -5.46834        0.14981
C          2.65349       -4.55381       -1.07454
C          1.59403       -3.48574       -1.19605
C          1.47983       -2.80212       -2.40229
C          0.48208       -1.88431       -2.61039
H          0.39828       -1.36649       -3.54962
H          2.18547       -3.01298       -3.18791
H          3.63753       -4.07476       -1.04679
H          3.40067       -6.05150        0.32848
H          2.91326       -3.95418        1.62688
H          0.66827       -3.14257        1.97093
C         -1.41445       -2.13351        0.64001
C         -1.22280       -1.37999        1.82155
C         -2.20635       -1.42557        2.80841
C         -3.36676       -2.13090        2.62234
C         -3.59088       -2.85036        1.45543
C         -4.89290       -3.60094        1.32104
C         -5.14416       -4.17711       -0.08136
C         -3.86411       -4.79186       -0.65523
C         -2.75485       -3.73467       -0.76381
C         -2.60057       -2.87673        0.47066
H         -1.79481       -4.21970       -0.98099
H         -4.05849       -5.25884       -1.63113
H         -5.49062       -3.37659       -0.74727
H         -5.71449       -2.93237        1.60881
H         -4.12474       -2.12937        3.38739
H         -2.05670       -0.85967        3.71151
N         -0.09295       -0.60184        2.07292
P          1.14271        0.21789        1.11568
C          2.63040       -0.78290        1.22834
C          3.13972       -0.99029        2.48923
C          4.31030       -1.71031        2.65378
C          4.98489       -2.22072        1.55352
C          4.46476       -1.98773        0.28871
C          3.28273       -1.28813        0.12999
H          2.86922       -1.12263       -0.85201
H          4.99998       -2.34695       -0.57347
C          6.25968       -2.97173        1.71882
H          4.71180       -1.87045        3.63975
H          2.62605       -0.57559        3.34281
C          1.53920        1.73387        2.02180
C          0.82504        2.06504        3.15058
C          1.12501        3.21718        3.85381
C          2.14907        4.05356        3.43364
C          2.87253        3.69952        2.30413
C          2.56451        2.54865        1.60490
H          3.12065        2.28452        0.72249
H          3.67838        4.33268        1.97407
C          2.49094        5.28266        4.20176
H          0.56344        3.47395        4.73586
H          0.01805        1.43185        3.47604
H          0.19038       -0.50896        3.04088
H         -2.45371       -0.99647       -1.51184
C         -1.92460        2.09484       -2.47845
C         -1.99645        3.42815       -2.15346
C         -2.38794        4.34499       -3.11235
C         -2.70062        3.93127       -4.40086
C         -2.62958        2.57801       -4.70465
C         -2.23812        1.66282       -3.74379
H         -2.16480        0.61151       -3.97229
H         -2.87827        2.24595       -5.69806
C         -3.14041        4.91627       -5.42744
H         -2.45017        5.39098       -2.86516
H         -1.74518        3.74577       -1.15399
C         -2.28595        1.19037        0.25402
C         -1.71206        2.00594        1.19826
C         -2.39732        2.28780        2.36597
C         -3.65883        1.75442        2.59171
C         -4.23334        0.95906        1.60950
C         -3.54810        0.67878        0.44125
H         -3.99653        0.06580       -0.32378
H         -5.21863        0.55498        1.76781
C         -4.39829        2.06007        3.84708
H         -1.95517        2.92718        3.11053
H         -0.73432        2.42282        1.01692
Cl         0.85349        2.10867       -3.09708
H          2.65133       -5.15311       -1.99412
H          2.03324       -5.31659        2.27554
H          1.70113       -6.20786       -0.05278
H         -0.05491       -4.57082        1.27322
H         -3.52756       -5.60580       -0.00088
H         -2.95409       -3.08717       -1.62471
H         -4.90352       -4.41171        2.05934
H         -5.95708       -4.91672       -0.06190
H          7.11782       -2.31224        1.58280
H          6.33071       -3.41613        2.71254
H          6.33575       -3.77926        0.98915
H          1.60989        5.69742        4.69355
H          3.23428        5.06508        4.96988
H          2.89854        6.05483        3.54779
H         -2.68599        5.89301       -5.25570
H         -2.85762        4.59227       -6.42997
H         -4.22396        5.04035       -5.40648
H         -5.02868        2.94131        3.72094
H         -5.03837        1.22610        4.13864
H         -3.71073        2.25272        4.67191
