105
-153.06614716
Cl        -0.02908        1.83583        3.11501
Pd        -0.47567        1.30203        0.97416
P         -1.11697        0.50064       -1.15073
N         -0.75336       -1.01849       -1.96564
C          0.17796       -2.00030       -1.62919
C          0.32373       -2.48395       -0.30467
C          1.29259       -3.47244       -0.03432
C          1.42265       -4.00066        1.37473
C          2.25769       -5.28416        1.50382
C          3.52354       -5.20327        0.64597
C          3.16105       -5.01004       -0.83379
C          2.09263       -3.97140       -1.06621
C          1.89472       -3.51607       -2.36370
C          0.95381       -2.56026       -2.64326
H          0.82343       -2.20637       -3.65105
H          2.50316       -3.91864       -3.15586
H          4.05327       -4.73493       -1.41089
H          4.13792       -4.35929        0.98410
H          2.51203       -5.48116        2.55486
H          1.86566       -3.21409        1.99629
C         -0.66992       -2.13136        0.73784
C         -0.24002       -1.54513        1.95928
C         -1.16621       -1.41533        2.99840
C         -2.46549       -1.82210        2.84164
C         -2.90770       -2.38588        1.65108
C         -4.34396       -2.84573        1.57465
C         -4.81471       -3.21872        0.15975
C         -3.73802       -4.01850       -0.57804
C         -2.44109       -3.20427       -0.69318
C         -2.00894       -2.54389        0.59380
H         -1.62775       -3.84486       -1.05635
H         -4.09439       -4.33081       -1.56990
H         -5.03626       -2.30576       -0.40649
H         -4.98801       -2.06359        1.99577
H         -3.16404       -1.70729        3.65319
H         -0.84980       -0.96031        3.92055
N          1.05597       -1.03743        2.13188
P          1.59828        0.18728        0.98572
C          2.62049       -0.36151       -0.36839
C          2.41704        0.19201       -1.60756
C          3.24183       -0.16270       -2.65913
C          4.27700       -1.06859       -2.46777
C          4.48589       -1.58864       -1.19676
C          3.65852       -1.23318       -0.14655
H          3.81530       -1.62911        0.84425
H          5.29840       -2.27611       -1.03510
C          5.16831       -1.44965       -3.59755
H          3.08240        0.25977       -3.63633
H          1.60840        0.88937       -1.74507
C          2.51740        1.50759        1.78549
C          3.24064        1.25577        2.92632
C          3.94713        2.28033        3.52996
C          3.94126        3.55852        2.98750
C          3.20642        3.79059        1.83259
C          2.50148        2.76507        1.22918
H          1.93347        2.94140        0.32877
H          3.18594        4.78082        1.41057
C          4.67412        4.66954        3.65535
H          4.50611        2.09299        4.43084
H          3.25446        0.26043        3.33984
H          1.21738       -0.60809        3.03368
H         -1.03178       -0.92456       -2.93428
C         -0.60370        1.86426       -2.20930
C         -0.83238        3.16190       -1.81868
C         -0.41988        4.21088       -2.61748
C          0.23108        3.96854       -3.81898
C          0.43884        2.65297       -4.20966
C          0.02239        1.60692       -3.40696
H          0.20146        0.58818       -3.70672
H          0.93108        2.45273       -5.14606
C          0.65887        5.09677       -4.69169
H         -0.60255        5.22691       -2.31174
H         -1.34156        3.34830       -0.88829
C         -2.91196        0.54929       -1.08677
C         -3.59470        0.85825       -2.23929
C         -4.97791        0.89185       -2.23282
C         -5.68558        0.61388       -1.07135
C         -4.97768        0.31309        0.08349
C         -3.59616        0.26685        0.06986
H         -3.04407        0.02936        0.96468
H         -5.51590        0.12013        0.99555
C         -7.17298        0.67686       -1.05067
H         -5.51614        1.14020       -3.13153
H         -3.04236        1.07599       -3.14003
Cl        -2.29158        2.63371        0.96569
H          2.81982       -5.96193       -1.25793
H          1.65621       -6.14328        1.18120
H          4.14783       -6.09738        0.78444
H          0.41751       -4.16552        1.78292
H         -3.53655       -4.94782       -0.03062
H         -2.56598       -2.42570       -1.45442
H         -4.46458       -3.70922        2.23976
H         -5.76023       -3.77810        0.19594
H          5.55474       -2.46181       -3.46930
H          4.63336       -1.41860       -4.54785
H          6.01875       -0.77006       -3.66675
H          5.55038        4.29901        4.18913
H          5.01695        5.40783        2.92909
H          4.03163        5.17847        4.37513
H          1.53763        4.82845       -5.27981
H         -0.13741        5.37472       -5.38349
H          0.91349        5.97725       -4.10007
H         -7.51385        1.66288       -0.73220
H         -7.59045        0.47900       -2.03890
H         -7.58746       -0.06141       -0.36261
