59
-75.79900996
Cl         1.44246        0.29282        2.41383
P          1.53914       -0.10303       -0.73065
P         -1.66213       -0.13250       -0.87198
C          0.64252        0.36327       -2.28086
H          0.45027        1.43747       -2.25566
H          1.30612        0.17516       -3.13043
C         -0.64226       -0.41075       -2.38693
H         -0.44180       -1.48050       -2.47499
H         -1.23059       -0.12191       -3.26323
C          2.29732       -1.76919       -1.03391
H          1.65115       -2.24729       -1.78156
C          3.12592        0.84136       -0.58678
H          3.48587        0.69994        0.43876
C         -2.82965       -1.51672       -0.46243
H         -2.78608       -1.62693        0.62833
C         -2.89355        1.23333       -1.14556
H         -2.87359        1.44725       -2.22104
C          3.67610       -1.43824       -1.65389
H          4.44942       -2.02856       -1.14523
H          3.71407       -1.77953       -2.69933
C          4.02720        0.08096       -1.57618
H          3.90774        0.53995       -2.56837
H          5.08742        0.22613       -1.31731
C         -4.19706       -0.95386       -0.88256
H         -4.39283       -1.23949       -1.92541
H         -5.00089       -1.42006       -0.29236
C         -4.23580        0.59041       -0.75090
H         -4.46142        0.85929        0.29028
H         -5.05595        1.01597       -1.34882
C          2.36147       -2.63208        0.22844
H          2.65302       -3.65358       -0.05368
H          1.35144       -2.72462        0.64878
C          2.97720        2.33166       -0.87368
H          3.97166        2.76326       -1.05409
H          2.43314        2.46297       -1.81730
C         -2.47778       -2.84121       -1.12962
H         -3.31801       -3.53889       -1.00761
H         -2.39245       -2.68265       -2.21232
C         -2.58382        2.50123       -0.35516
H         -3.46025        3.16341       -0.38799
H         -2.46333        2.23730        0.70330
C          3.30393       -2.11979        1.30754
H          3.28738       -2.75456        2.19654
H          3.03122       -1.11535        1.62693
H          4.33787       -2.07692        0.96306
C          2.28725        3.08244        0.25520
H          1.31100        2.65353        0.48006
H          2.13869        4.13834        0.01824
H          2.87049        3.03051        1.17654
C         -1.20692       -3.46082       -0.57475
H         -0.36369       -2.78007       -0.68243
H         -0.94629       -4.39323       -1.08067
H         -1.30568       -3.67902        0.49040
C         -1.35944        3.24548       -0.85826
H         -0.46770        2.62545       -0.78503
H         -1.47033        3.52875       -1.90668
H         -1.16977        4.15774       -0.28795
Cl        -1.87995        0.33502        2.26123
Pd        -0.14921        0.22323        0.84060
