111
-148.55277258
P         -2.63588        1.95874        0.26243
P          0.12442        0.44085        0.50040
C         -1.81727        1.82711        1.87808
C         -0.58281        1.21969        1.96346
C         -3.54989        3.55961        0.09047
C         -2.77278        4.57378       -0.72000
C         -2.41447        2.32946        3.01682
H         -3.38872        2.78498        2.95228
C         -1.76650        2.23001        4.23609
H         -2.23239        2.62256        5.12520
C         -0.52602        1.62663        4.31620
H         -0.02357        1.54672        5.26612
C          0.06568        1.11382        3.17592
H          1.02383        0.62010        3.22272
Pd        -1.00905        1.38473       -1.28027
Cl        -2.40375        2.17777       -2.84864
Cl         0.53428        0.53752       -2.67707
C         -4.88637        3.11487       -0.53052
C         -4.02076        0.75866       -0.00325
H         -3.31941        5.51525       -0.81075
H         -1.80303        4.78650       -0.26396
H         -2.58545        4.20565       -1.72903
H         -4.79685        3.15512       -1.62496
H         -5.68616        3.82560       -0.27190
H         -3.82523        0.28092       -0.97272
C         -5.26096        1.66915       -0.09392
C         -4.07808       -0.27262        1.10257
H         -3.71515        3.93331        1.10878
H         -5.74858        1.70032        0.89009
H         -6.00568        1.23406       -0.77748
H         -4.20107        0.20840        2.07474
H         -4.91379       -0.96242        0.96358
H         -3.15926       -0.86047        1.14203
C         -1.40076       -3.84735        0.27949
C         -0.85597       -3.22813       -0.87403
C         -0.41648       -1.92145       -0.76618
C         -0.42315       -1.26487        0.43509
C         -0.83879       -1.89905        1.57626
C         -1.30382       -3.20306        1.53961
O         -2.08119       -5.08874        0.16627
C         -0.76918       -3.92781       -2.23872
H         -0.07472       -1.38251       -1.63184
H         -0.81575       -1.34972        2.50074
C         -1.73421       -3.88126        2.84945
C          4.63829        0.79889        0.03905
C          4.00839       -0.46276       -0.11052
C          2.63367       -0.52814        0.03714
C          1.90348        0.57678        0.38805
C          2.51831        1.77675        0.63162
C          3.89194        1.91151        0.50648
O          6.00421        0.95744       -0.31638
C          4.77728       -1.74284       -0.47295
H          2.10751       -1.44935       -0.14104
H          1.90338        2.61526        0.91033
C          4.54450        3.26226        0.84028
C         -0.59601       -5.44854       -2.07598
C         -2.03934       -3.61994       -3.04607
C          0.45690       -3.41852       -3.03166
C         -0.91761       -3.33310        4.04177
C         -3.22249       -3.59793        3.10465
C         -1.48508       -5.39948        2.79474
C         -3.46924       -4.96092       -0.11613
H          0.28050       -5.67163       -1.46851
H         -1.45960       -5.89727       -1.59183
H         -0.47113       -5.93446       -3.04333
H         -2.00348       -4.09384       -4.02659
H         -2.92907       -3.97627       -2.53211
H         -2.15018       -2.54587       -3.19403
H          0.59615       -3.99864       -3.94351
H          0.34226       -2.37778       -3.33046
H          1.36599       -3.50586       -2.43743
H         -1.12869       -3.90006        4.94821
H          0.15172       -3.40370        3.84419
H         -1.16013       -2.29255        4.25266
H         -3.55718       -4.07111        4.02742
H         -3.40175       -2.52663        3.19171
H         -3.84028       -3.97215        2.29184
H         -0.44007       -5.60891        2.56876
H         -1.72769       -5.87114        3.74666
H         -2.09349       -5.87381        2.02870
H         -3.75168       -3.90863       -0.16922
H         -3.69676       -5.44587       -1.06522
H         -4.04753       -5.45346        0.66549
C          6.20903        1.31516       -1.67755
C          4.07654       -2.98660        0.12132
C          4.82123       -1.89017       -2.00158
C          6.20508       -1.71657        0.10170
C          3.74314        3.99847        1.93804
C          5.97287        3.07075        1.38202
C          4.56942        4.13971       -0.42044
H          4.68474       -3.87917       -0.02357
H          3.91164       -2.86417        1.19147
H          3.11531       -3.17584       -0.35410
H          5.32605       -1.04584       -2.46474
H          5.34820       -2.79873       -2.29179
H          3.81302       -1.93794       -2.41259
H          6.72699       -2.65115       -0.10243
H          6.79285       -0.91092       -0.33072
H          6.18135       -1.56995        1.18101
H          4.27042        4.89363        2.26714
H          2.76596        4.31780        1.57900
H          3.59722        3.35746        2.80713
H          6.40994        4.02341        1.68019
H          5.96888        2.41266        2.25026
H          6.62596        2.63018        0.63291
H          3.55941        4.30477       -0.79483
H          5.14364        3.67089       -1.21582
H          5.01546        5.11168       -0.21126
H          6.81051        0.55179       -2.17075
H          5.25244        1.41351       -2.19243
H          6.74944        2.26017       -1.72985
