111
-148.55062874
P         -2.16209        2.47000        0.90614
P         -0.14035        0.05505        0.53926
C         -1.35788        1.74695        2.35500
C         -0.45739        0.71898        2.18730
C         -2.06104        4.31796        0.98315
C         -1.00868        4.87147        0.04708
C         -1.61214        2.24397        3.61711
H         -2.32041        3.04719        3.74048
C         -0.95534        1.70955        4.71217
H         -1.15362        2.09541        5.69878
C         -0.03999        0.68894        4.54049
H          0.47767        0.27799        5.39157
C          0.21284        0.19502        3.27326
H          0.93267       -0.59426        3.12123
Pd        -1.33129        1.39503       -0.95529
Cl        -2.19116        2.96205       -2.30386
Cl        -0.22943        0.27874       -2.57277
C         -3.50348        4.75190        0.66657
C         -3.99910        2.24833        0.87291
H         -1.23592        4.61766       -0.98851
H         -0.94909        5.96027        0.11228
H         -0.02160        4.46364        0.27426
H         -3.59240        4.91572       -0.41627
H         -3.72345        5.72449        1.13255
H         -4.24235        1.91815       -0.14598
C         -4.53146        3.67355        1.11350
C         -4.44828        1.22232        1.89125
H         -1.81228        4.56370        2.02377
H         -4.74718        3.79501        2.18383
H         -5.49527        3.81393        0.60110
H         -5.53192        1.08506        1.86863
H         -3.97885        0.25218        1.71021
H         -4.17601        1.53286        2.90142
C         -1.13772       -4.39191        0.24628
C         -1.29279       -3.72143        1.48642
C         -0.97963       -2.37386        1.54838
C         -0.60021       -1.67950        0.42841
C         -0.57225       -2.30120       -0.79241
C         -0.86538       -3.64610       -0.92796
O         -1.21897       -5.80870        0.18813
C         -1.75837       -4.44130        2.76183
H         -1.02316       -1.84787        2.48456
H         -0.31606       -1.70887       -1.65152
C         -0.85341       -4.27463       -2.33034
C          4.10919        0.94162       -0.81242
C          3.62665       -0.39082       -0.88022
C          2.33329       -0.64073       -0.45532
C          1.56094        0.35527        0.08077
C          2.05998        1.62009        0.25167
C          3.34940        1.93648       -0.14408
O          5.32512        1.29006       -1.45782
C          4.45322       -1.54873       -1.46001
H          1.90149       -1.61959       -0.56224
H          1.41577        2.36562        0.68608
C          3.87881        3.35501        0.11575
C         -2.73676       -5.58211        2.42790
C         -0.53550       -4.99486        3.50867
C         -2.50738       -3.46480        3.69748
C         -1.85188       -5.44252       -2.42419
C         -1.27386       -3.23662       -3.39625
C          0.56641       -4.76230       -2.65666
C          0.02784       -6.46703        0.37392
H         -3.58574       -5.20513        1.85860
H         -2.25555       -6.35652        1.83563
H         -3.11747       -6.05031        3.33528
H          0.15011       -4.19058        3.77464
H         -0.83453       -5.50111        4.42614
H          0.01165       -5.70680        2.89539
H         -1.83960       -2.71224        4.11428
H         -3.30928       -2.95497        3.16404
H         -2.95098       -3.99819        4.53791
H         -1.57584       -6.25557       -1.75752
H         -2.85393       -5.11299       -2.15167
H         -1.89048       -5.84499       -3.43611
H         -1.39381       -3.70931       -4.37071
H         -2.22249       -2.77084       -3.13093
H         -0.52817       -2.45170       -3.51259
H          0.60488       -5.21884       -3.64533
H          1.27103       -3.93138       -2.64228
H          0.90741       -5.49829       -1.93236
H         -0.04027       -7.14398        1.22539
H          0.26672       -7.05627       -0.51122
H          0.82050       -5.73879        0.55052
C          5.15669        1.71119       -2.80583
C          5.95925       -1.33277       -1.22615
C          4.07862       -2.88204       -0.77285
C          4.16186       -1.67095       -2.96355
C          5.40897        3.35892        0.28500
C          3.47233        4.26789       -1.05110
C          3.28243        3.92410        1.42353
H          6.53715       -2.18596       -1.58057
H          6.32015       -0.45136       -1.75008
H          6.16739       -1.19897       -0.16516
H          4.74419       -3.68299       -1.09395
H          4.15792       -2.79477        0.31040
H          3.06444       -3.19333       -1.01724
H          4.43457       -0.76044       -3.49213
H          4.71940       -2.49695       -3.40428
H          3.10063       -1.84819       -3.13692
H          5.77301        4.35497        0.53570
H          5.70852        2.67785        1.08085
H          5.91050        3.04609       -0.62722
H          2.38848        4.29280       -1.16181
H          3.81905        5.28803       -0.88842
H          3.89181        3.91560       -1.99066
H          3.74701        4.87635        1.67840
H          3.44681        3.23818        2.25414
H          2.21246        4.10442        1.33647
H          4.10227        1.68020       -3.08370
H          5.53303        2.72736       -2.92233
H          5.72552        1.05806       -3.46742
