111
-148.55519920
P         -2.66231        1.79074        0.68018
P          0.23246        0.50938        0.42856
C         -1.66210        1.49974        2.16912
C         -0.38220        1.00247        2.04936
C         -3.81387        3.21877        0.94656
C         -3.64903        4.28440       -0.11397
C         -2.17782        1.76726        3.42177
H         -3.18624        2.13475        3.51669
C         -1.40530        1.54557        4.54887
H         -1.80855        1.75538        5.52613
C         -0.12065        1.05311        4.42375
H          0.47958        0.87716        5.30124
C          0.39015        0.77453        3.16913
H          1.38289        0.36880        3.05437
Pd        -1.14493        1.64249       -1.06272
Cl        -2.68861        2.48238       -2.44561
Cl         0.45719        1.28054       -2.59668
C         -5.20320        2.54593        0.94547
C         -3.87708        0.43888        0.33130
H         -2.61620        4.63609       -0.16782
H         -3.91605        3.89253       -1.09600
H         -4.29177        5.14650        0.07923
H         -5.94685        3.24157        0.53004
H         -5.52619        2.35149        1.97879
H         -3.56297       -0.03997       -0.60655
C         -5.20012        1.21011        0.14894
C         -3.90498       -0.57066        1.45820
H         -3.57620        3.63608        1.93398
H         -6.04275        0.57312        0.45551
H         -5.36160        1.42400       -0.91802
H         -2.92317       -1.02356        1.60846
H         -4.19238       -0.09254        2.39645
H         -4.61984       -1.37307        1.26104
C         -1.50707       -3.62724       -0.34165
C         -1.18237       -2.78532       -1.43805
C         -0.63224       -1.54574       -1.16690
C         -0.35591       -1.15521        0.11630
C         -0.54197       -2.01661        1.16538
C         -1.07016       -3.28113        0.96536
O         -2.34039       -4.75845       -0.53691
C         -1.42380       -3.15363       -2.91059
H         -0.42744       -0.85235       -1.96394
H         -0.29010       -1.68205        2.15738
C         -1.14095       -4.22788        2.17471
C          4.77136        0.59390        0.08965
C          4.12193       -0.52184        0.67707
C          2.73859       -0.51473        0.74127
C          2.01596        0.57191        0.32246
C          2.64360        1.69645       -0.14397
C          4.02429        1.75291       -0.24370
O          6.16127        0.53634       -0.19717
C          4.88635       -1.74300        1.21225
H          2.20050       -1.37110        1.10984
H          2.03295        2.52755       -0.45203
C          4.68364        3.04479       -0.75144
C         -2.60757       -2.33290       -3.45037
C         -0.16124       -2.82223       -3.73675
C         -1.70693       -4.65360       -3.10036
C          0.21820       -4.21735        2.90891
C         -2.23845       -3.74784        3.13911
C         -1.41846       -5.68391        1.76266
C         -3.71733       -4.45453       -0.38642
H         -2.78972       -2.55651       -4.50108
H         -3.52017       -2.54874       -2.89803
H         -2.41267       -1.26427       -3.36406
H          0.71184       -3.32608       -3.32316
H         -0.27798       -3.14543       -4.77079
H          0.04328       -1.75310       -3.75344
H         -1.78121       -4.90890       -4.15716
H         -0.91126       -5.25351       -2.66006
H         -2.64243       -4.94081       -2.62617
H          1.02400       -4.49007        2.22800
H          0.44633       -3.23747        3.32512
H          0.21991       -4.92933        3.73384
H         -2.03859       -2.73399        3.48467
H         -3.21410       -3.74831        2.65681
H         -2.29679       -4.39412        4.01450
H         -0.68900       -6.02049        1.02680
H         -1.36803       -6.35191        2.62219
H         -2.40747       -5.78783        1.32279
H         -4.00575       -3.67093       -1.08537
H         -4.30707       -5.34982       -0.58422
H         -3.91603       -4.10985        0.62699
C          6.46594        0.01406       -1.48443
C          6.26377       -1.33675        1.76673
C          4.11092       -2.40450        2.37487
C          5.05038       -2.77421        0.08548
C          3.83608        4.27874       -0.36658
C          6.07480        3.24453       -0.12305
C          4.79522        2.98692       -2.28261
H          6.90263       -0.93191        0.98592
H          6.15702       -0.57546        2.53876
H          6.77861       -2.19245        2.20286
H          3.18760       -2.86830        2.03136
H          4.70725       -3.18843        2.84119
H          3.86258       -1.67169        3.14222
H          5.57773       -3.65945        0.44004
H          4.07796       -3.08913       -0.29258
H          5.61131       -2.36095       -0.74922
H          4.36267        5.20101       -0.61100
H          2.88896        4.30074       -0.90347
H          3.62613        4.28664        0.70267
H          6.51296        4.19247       -0.43436
H          6.00835        3.24234        0.96439
H          6.76072        2.45392       -0.41645
H          3.81070        2.87187       -2.73556
H          5.40553        2.14576       -2.60210
H          5.24448        3.89813       -2.67658
H          7.09349       -0.87099       -1.38122
H          5.54970       -0.24876       -2.01467
H          7.01838        0.75702       -2.05943
