72
-98.09411573
Fe        -0.04108        2.80651       -0.12027
P          1.81331       -0.06923       -0.04613
P         -1.86820       -0.08319       -0.08435
C          1.41145        1.60906        0.58270
C          0.46486        1.92375        1.63869
C          0.42442        3.36738        1.79428
C          1.37106        3.94833        0.86012
C          1.98502        2.86223        0.11566
C         -1.42300        1.54124       -0.80919
C         -2.03717        2.82061       -0.49325
C         -1.38556        3.84333       -1.29452
C         -0.38147        3.19651       -2.11967
C         -0.40668        1.77518       -1.82213
C          3.00516        0.10743       -1.46215
C          4.38247        0.20704       -0.75951
C          3.00814       -0.83187        1.14125
C          4.31522       -0.11716        0.76407
C         -3.33513       -0.75611       -0.99157
C         -4.50501       -0.24495       -0.13373
C         -2.63361        0.12105        1.59288
C         -4.12637       -0.20147        1.37117
H         -0.09663        1.20187        2.23069
H         -0.18525        3.91684        2.51544
H          1.59240        5.01190        0.74594
H          2.74943        2.96670       -0.65692
H         -2.85485        2.97652        0.21390
H          0.23571        1.01510       -2.26726
Cl         1.54110       -3.11777       -0.31936
Cl        -1.65865       -3.05451        0.18308
Pd        -0.02281       -1.51763       -0.06168
H          2.74972        1.04110       -1.97730
C          2.94368       -1.05921       -2.44520
H          3.07804       -1.89948        0.90440
C          2.55954       -0.64015        2.58412
H          4.82325        1.20234       -0.91858
H          5.07574       -0.49111       -1.24911
H          5.18598       -0.71274        1.07912
H          4.37538        0.81570        1.34343
H         -1.62611        4.90882       -1.29347
H          0.27326        3.68945       -2.84182
H          3.80473       -0.99682       -3.12533
H          2.48954        0.43513        2.79474
H         -3.27517       -1.84908       -0.93992
C         -3.38769       -0.30603       -2.44666
H         -2.49546        1.17351        1.86721
C         -1.96945       -0.79025        2.62105
H         -5.40029       -0.86430       -0.29875
H         -4.77689        0.76387       -0.47528
H         -4.75940        0.51709        1.91277
H         -4.34550       -1.17873        1.82218
H         -4.36738       -0.56890       -2.86947
H         -0.87882       -0.69110        2.55483
C          1.66105       -1.12282       -3.25641
H          1.50806       -0.20735       -3.83082
H          1.66533       -1.95597       -3.96295
H          0.79397       -1.25523       -2.61110
C          3.48125       -1.31563        3.58793
H          4.49534       -0.91684        3.52628
H          3.13740       -1.18006        4.61587
H          3.54544       -2.38929        3.40151
C         -2.27711       -0.90778       -3.29080
H         -2.32401       -1.99838       -3.28735
H         -2.32389       -0.57702       -4.33078
H         -1.29846       -0.62920       -2.90190
C         -2.43223       -0.51745        4.04403
H         -3.51030       -0.65470        4.14445
H         -1.94834       -1.17915        4.76601
H         -2.21010        0.50979        4.33940
H          3.08652       -1.99315       -1.88658
H          1.53575       -1.02332        2.69454
H         -3.34258        0.79042       -2.48062
H         -2.17049       -1.83447        2.34721
