111
-148.55122239
P         -2.72836        2.00312       -0.33288
P          0.05843        0.59317        0.30108
C         -1.90317        2.28289        1.26046
C         -0.67936        1.70158        1.51416
C         -3.64308        3.51778       -0.87887
C         -3.21168        3.95802       -2.26023
C         -2.50261        3.06733        2.22536
H         -3.46492        3.51104        2.02904
C         -1.87173        3.26886        3.44101
H         -2.34048        3.88064        4.19444
C         -0.64467        2.68514        3.69100
H         -0.15507        2.83918        4.63849
C         -0.04802        1.89545        2.72465
H          0.90275        1.41973        2.90773
Pd        -1.13270        0.95977       -1.64236
Cl        -2.58386        1.04545       -3.34948
Cl         0.52053       -0.04052       -2.79359
C         -5.12112        3.08201       -0.79126
C         -4.11900        0.78738       -0.23718
H         -3.44463        3.18953       -2.99832
H         -3.72285        4.87336       -2.56786
H         -2.13522        4.14013       -2.30183
H         -5.70148        3.59626       -1.57114
H         -5.55326        3.41301        0.16455
H         -3.81523       -0.09073       -0.82370
C         -5.27933        1.54031       -0.91958
C         -4.39633        0.39625        1.19797
H         -3.41709        4.30356       -0.14553
H         -6.23607        1.21074       -0.48861
H         -5.32319        1.26824       -1.98457
H         -3.51053       -0.03729        1.66711
H         -4.68500        1.26925        1.78620
H         -5.20768       -0.33242        1.26623
C         -1.12991       -3.72296        1.14376
C         -0.40951       -3.39429       -0.03278
C         -0.10547       -2.06391       -0.26137
C         -0.40767       -1.09804        0.66051
C         -1.00803       -1.42371        1.84796
C         -1.35671       -2.73305        2.13440
O         -1.65217       -5.03213        1.31958
C          0.03095       -4.44120       -1.06744
H          0.35770       -1.75201       -1.18136
H         -1.20181       -0.63473        2.55261
C         -1.98760       -3.06578        3.49583
C          4.59566        0.88386        0.05853
C          3.79650        1.65112       -0.82752
C          2.41898        1.58153       -0.69782
C          1.83824        0.72867        0.20321
C          2.60375       -0.09427        0.98774
C          3.98657       -0.06697        0.91635
O          6.00083        1.08560        0.10706
C          4.39970        2.54329       -1.92420
H          1.77544        2.18367       -1.31574
H          2.09940       -0.77077        1.65637
C          4.80047       -1.05322        1.76865
C         -1.05482       -4.57712       -2.14554
C          1.35023       -4.00711       -1.74779
C          0.29953       -5.80358       -0.40315
C         -3.51857       -3.02041        3.37821
C         -1.53559       -4.45461        3.98262
C         -1.54953       -2.04399        4.56947
C         -2.94299       -5.22270        0.75401
H         -0.76693       -5.30900       -2.89972
H         -2.00214       -4.89218       -1.71458
H         -1.22046       -3.62352       -2.64649
H          1.73650       -4.80171       -2.38563
H          1.21068       -3.13091       -2.37899
H          2.11169       -3.77494       -1.00373
H          0.67229       -6.52650       -1.12834
H          1.04139       -5.70403        0.38857
H         -0.60386       -6.21657        0.03792
H         -3.87974       -3.73780        2.64588
H         -3.99005       -3.24968        4.33352
H         -3.85294       -2.03155        3.06710
H         -1.88029       -5.23968        3.31379
H         -0.44853       -4.50947        4.03076
H         -1.93075       -4.66994        4.97506
H         -1.89197       -2.35072        5.55754
H         -0.46371       -1.95804        4.60374
H         -1.96762       -1.05640        4.37904
H         -2.89153       -5.96812       -0.03916
H         -3.62471       -5.59022        1.52096
H         -3.32274       -4.28457        0.34718
C          6.41092        2.09401        1.02170
C          3.44370        2.63479       -3.13606
C          4.62475        3.95662       -1.36690
C          5.72598        1.96028       -2.44532
C          3.99870       -2.35168        2.01783
C          6.10087       -1.45955        1.05181
C          5.12270       -0.40792        3.12474
H          3.15426        1.64096       -3.47680
H          2.53882        3.19061       -2.89545
H          3.92223        3.14867       -3.96935
H          3.68519        4.38999       -1.02491
H          5.30935        3.94286       -0.52220
H          5.04271        4.61448       -2.12847
H          5.58254        0.94042       -2.80075
H          6.11888        2.55500       -3.26957
H          6.48341        1.93810       -1.66580
H          3.64279       -2.77417        1.07853
H          4.61932       -3.10154        2.50784
H          3.13904       -2.17788        2.66345
H          6.75989       -0.60609        0.91239
H          6.64747       -2.20773        1.62533
H          5.88270       -1.87733        0.06953
H          4.20685       -0.14201        3.65213
H          5.70787        0.49996        2.99968
H          5.69075       -1.09009        3.75675
H          5.54610        2.51982        1.53203
H          7.09206        1.66487        1.75635
H          6.94093        2.88091        0.48541
