111
-148.55579605
P         -2.55240        2.03295        1.09155
P          0.10806        0.42744        0.50765
C         -1.44976        1.58985        2.46256
C         -0.26650        0.93619        2.19481
C         -3.34537        3.68379        1.36252
C         -2.71625        4.75534        0.49914
C         -1.78746        1.89250        3.76632
H         -2.72303        2.38499        3.97446
C         -0.93123        1.54647        4.79764
H         -1.19427        1.78240        5.81588
C          0.25773        0.89732        4.52480
H          0.92250        0.62562        5.32818
C          0.58936        0.58682        3.21824
H          1.50446        0.06390        2.98780
Pd        -1.35118        1.60966       -0.83844
Cl        -3.01773        2.62672       -1.94434
Cl        -0.08107        1.13833       -2.62863
C         -4.82946        3.40031        1.06560
C         -4.05602        0.96079        0.96921
H         -3.18557        5.72789        0.66460
H         -1.64778        4.85404        0.70510
H         -2.82402        4.51499       -0.55914
H         -5.02473        3.61995        0.00687
H         -5.47364        4.08797        1.63449
H         -4.14249        0.67906       -0.08883
C         -5.19712        1.91784        1.36207
C         -3.92937       -0.26794        1.84344
H         -3.21055        3.92159        2.42529
H         -5.40429        1.79957        2.43454
H         -6.12844        1.63409        0.84877
H         -4.82694       -0.88870        1.79358
H         -3.07766       -0.88074        1.54079
H         -3.77657        0.01289        2.88715
C         -1.12261       -3.90369       -0.16960
C         -1.05944       -3.39646        1.15392
C         -0.67722       -2.07783        1.33350
C         -0.43894       -1.26014        0.26057
C         -0.60136       -1.71691       -1.01969
C         -0.98256       -3.02254       -1.27209
O         -1.28332       -5.29743       -0.39033
C         -1.35563       -4.26241        2.38810
H         -0.54531       -1.67338        2.32128
H         -0.41254       -1.02885       -1.82519
C         -1.20157       -3.46426       -2.72692
C          4.49102        0.67435       -0.68785
C          3.95546       -0.53992       -0.18217
C          2.61570       -0.56695        0.16584
C          1.84220        0.56240        0.10029
C          2.38452        1.76589       -0.26529
C          3.71822        1.86535       -0.62827
O          5.75896        0.67914       -1.32383
C          4.76625       -1.83354        0.00343
H          2.15185       -1.48845        0.47591
H          1.74449        2.63181       -0.28596
C          4.27206        3.26380       -0.94947
C         -0.05497       -4.92761        2.86334
C         -1.91768       -3.39892        3.54066
C         -2.41632       -5.33288        2.07363
C         -1.71215       -2.28140       -3.58218
C          0.13082       -3.95505       -3.31344
C         -2.26451       -4.57396       -2.81695
C         -0.05734       -6.01334       -0.47573
H          0.36776       -5.56402        2.08957
H          0.69158       -4.17552        3.11790
H         -0.23034       -5.54196        3.74610
H         -2.23580       -4.02604        4.37320
H         -1.17211       -2.70702        3.92946
H         -2.78086       -2.82312        3.20864
H         -2.67349       -5.90377        2.96550
H         -3.32631       -4.87063        1.69245
H         -2.06079       -6.03610        1.32469
H         -0.94940       -1.51467       -3.70857
H         -1.99437       -2.61801       -4.57937
H         -2.58707       -1.82086       -3.12412
H          0.01090       -4.26155       -4.35220
H          0.88078       -3.16502       -3.27867
H          0.51880       -4.80372       -2.75511
H         -2.46484       -4.84163       -3.85410
H         -1.94257       -5.47509       -2.30114
H         -3.19982       -4.24640       -2.36429
H          0.78871       -5.33641       -0.34976
H         -0.02714       -6.78035        0.29796
H          0.01245       -6.50550       -1.44562
C          5.67681        0.40632       -2.71300
C          6.28347       -1.59118       -0.07265
C          4.47328       -2.42587        1.40018
C          4.35133       -2.85363       -1.07056
C          3.81853        4.25948        0.14110
C          5.81021        3.29500       -0.97252
C          3.72690        3.72676       -2.31093
H          6.58525       -0.82031        0.63555
H          6.83849       -2.50050        0.15682
H          6.58217       -1.26604       -1.06626
H          3.43469       -2.73739        1.49919
H          5.09327       -3.30208        1.58827
H          4.68139       -1.69329        2.17951
H          4.55626       -2.47738       -2.07095
H          4.89253       -3.79130       -0.94690
H          3.28525       -3.07144       -1.01035
H          4.26172        5.24167       -0.02137
H          2.73769        4.38945        0.14726
H          4.12255        3.91278        1.12836
H          6.20503        2.69308       -1.78745
H          6.18060        4.31129       -1.10493
H          6.21651        2.90326       -0.04069
H          4.07962        4.72926       -2.55160
H          2.63751        3.74530       -2.30827
H          4.04372        3.05910       -3.10962
H          6.67800        0.42907       -3.14387
H          5.23661       -0.57596       -2.87606
H          5.05596        1.15329       -3.20461
