105
-153.05952657
Cl         0.57947        3.73134        1.42298
Pd        -0.08974        1.98574        0.16904
P         -0.73347        0.23465       -1.30884
N          0.12450       -1.18211       -1.94396
C          0.20736       -2.50703       -1.52731
C         -0.13869       -2.97238       -0.22932
C          0.17624       -4.30009        0.13452
C         -0.00483       -4.72913        1.57274
C          0.80175       -5.98058        1.94822
C          0.58861       -7.08549        0.90955
C          1.03759       -6.62256       -0.48619
C          0.70282       -5.18544       -0.80851
C          0.96292       -4.72693       -2.09291
C          0.73956       -3.41943       -2.43786
H          0.98908       -3.07602       -3.42697
H          1.37604       -5.41029       -2.81567
H          2.12210       -6.75303       -0.58366
H          1.11396       -8.00450        1.20554
H          1.86787       -5.72527        1.99401
H          0.26941       -3.89373        2.22952
C         -0.73694       -2.09127        0.80939
C          0.08147       -1.09887        1.40898
C         -0.38591       -0.41060        2.52860
C         -1.63384       -0.67286        3.03147
C         -2.47143       -1.61372        2.43877
C         -3.82697       -1.84890        3.06466
C         -4.76632       -2.77363        2.26824
C         -3.99317       -3.90042        1.57509
C         -2.93342       -3.31372        0.63301
C         -2.02626       -2.32440        1.32020
H         -2.34490       -4.11060        0.16430
H         -4.67434       -4.57178        1.03329
H         -5.30066       -2.18768        1.51092
H         -4.30745       -0.87573        3.22734
H         -1.98627       -0.13468        3.89501
H          0.23591        0.34258        2.97652
N          1.25165       -0.74526        0.74366
P          1.80853        0.87013        0.96593
C          2.93340        1.32402       -0.34862
C          3.17157        2.65519       -0.59465
C          3.95505        3.02382       -1.67259
C          4.49987        2.05968       -2.51062
C          4.23374        0.72110       -2.25316
C          3.45098        0.35415       -1.17348
H          3.22940       -0.68297       -0.98018
H          4.63562       -0.03182       -2.90946
C          5.30941        2.45545       -3.69596
H          4.13423        4.06514       -1.87877
H          2.70293        3.39644        0.03350
C          2.57966        0.97896        2.57917
C          2.47425        2.10981        3.35186
C          3.07524        2.15342        4.59512
C          3.79160        1.06321        5.07094
C          3.87751       -0.07575        4.28104
C          3.27418       -0.11553        3.03614
H          3.32854       -0.99931        2.41966
H          4.41639       -0.93260        4.64773
C          4.41755        1.09839        6.42175
H          2.98895        3.03565        5.20617
H          1.91222        2.94907        2.97926
H          1.11365       -0.85682       -0.25988
H          0.34810       -0.99001       -2.91257
C         -0.59999        1.40404       -2.67085
C          0.66492        1.78192       -3.05380
C          0.82980        2.69195       -4.08176
C         -0.27305        3.22313       -4.73636
C         -1.54256        2.83526       -4.32824
C         -1.70498        1.92571       -3.29976
H         -2.68953        1.63176       -2.97542
H         -2.40442        3.25637       -4.81709
C         -0.09887        4.22770       -5.82154
H          1.81852        3.00138       -4.37431
H          1.51954        1.38100       -2.53321
C         -2.46450       -0.20465       -1.16387
C         -3.25090        0.25581       -0.13536
C         -4.59307       -0.07211       -0.09495
C         -5.15662       -0.86736       -1.08409
C         -4.34578       -1.32753       -2.11224
C         -3.00273       -0.99568       -2.15080
H         -2.36697       -1.35260       -2.94592
H         -4.77195       -1.95020       -2.88016
C         -6.59690       -1.24281       -1.04008
H         -5.21116        0.29135        0.70801
H         -2.81296        0.87090        0.63371
Cl        -2.05696        2.99259       -0.23664
H          0.59637       -7.26592       -1.25819
H          0.53773       -6.33236        2.95563
H         -0.47547       -7.35230        0.88059
H         -1.06726       -4.91449        1.76248
H         -3.50242       -4.52376        2.33279
H         -3.42973       -2.80404       -0.19925
H         -3.67029       -2.26542        4.06696
H         -5.54922       -3.18646        2.91988
H          4.67729        2.56036       -4.57883
H          5.81422        3.40786       -3.52840
H          6.07461        1.70982       -3.91628
H          3.72056        0.74083        7.18087
H          5.30830        0.46975        6.45953
H          4.71707        2.11233        6.69057
H         -0.90807        4.16434       -6.55040
H         -0.09116        5.23948       -5.41396
H          0.83994        4.07248       -6.35507
H         -7.09540       -0.98144       -1.97452
H         -6.71313       -2.31645       -0.88498
H         -7.11788       -0.72976       -0.23060
