87
-129.18883031
P         -1.58014       -0.32789       -0.29381
P          1.64244        0.38172       -0.00590
C         -1.27714        0.93716       -1.53808
C          1.49074       -0.69819       -1.44422
C         -0.24704        0.79178       -2.46062
C         -0.00973        1.83033       -3.38282
C         -0.81862        2.95399       -3.35893
C         -1.84158        3.07462       -2.44298
C         -2.06514        2.06239       -1.53096
C          2.25917       -1.83751       -1.45720
C          2.14424       -2.74810       -2.48864
C          1.24379       -2.51582       -3.50517
C          0.45436       -1.37879       -3.51249
C          0.58606       -0.44003       -2.47042
Cl         1.19636        0.41704        3.22580
Cl        -1.53419       -1.29481        2.78097
H         -2.45870        3.95807       -2.43251
H         -2.86009        2.15175       -0.80961
H          2.95439       -2.01966       -0.65499
H          2.74772       -3.64100       -2.49211
H         -0.63369        3.74485       -4.06595
H          1.13982       -3.22874       -4.30551
C         -1.77965       -4.47310       -2.13877
C         -0.93484       -4.24993       -1.06026
C         -0.90944       -2.98335       -0.48955
C         -1.68394       -1.97009       -1.00491
C         -2.51275       -2.19623       -2.07853
C         -2.56499       -3.45619       -2.64557
H         -1.81592       -5.45411       -2.58098
C         -0.09433       -5.34528       -0.50549
H         -0.27166       -2.79061        0.35647
H         -3.10356       -1.38473       -2.47376
H         -3.21277       -3.64161       -3.48662
C         -5.34368        0.70925        2.05547
C         -5.33353       -0.40119        1.23458
C         -4.19624       -0.71705        0.51566
C         -3.07964        0.07826        0.62207
C         -3.08639        1.18284        1.44267
C         -4.22296        1.52045        2.16684
H         -6.22515        0.95158        2.62430
H         -6.20894       -1.02519        1.15893
H         -4.17096       -1.58699       -0.11960
H         -2.19903        1.78719        1.53201
C         -4.21223        2.69668        3.07826
C          5.42387       -0.65442        2.31517
C          5.35057        0.53402        1.61593
C          4.20239        0.85244        0.91553
C          3.13900       -0.01976        0.91485
C          3.20968       -1.20345        1.61317
C          4.35171       -1.53564        2.33143
H          6.31788       -0.90544        2.86017
H          6.18660        1.21410        1.61731
H          4.12955        1.78018        0.37245
H          2.36510       -1.87289        1.61675
C          4.42353       -2.82271        3.07510
C          1.41447        4.80676       -1.01133
C          2.31039        3.99638       -1.68097
C          2.38762        2.65071       -1.37292
C          1.57398        2.13172       -0.39347
C          0.69342        2.93970        0.28823
C          0.58799        4.28936       -0.02320
H          1.34968        5.85382       -1.25350
H          2.94366        4.41005       -2.44856
H          3.06704        1.99912       -1.89959
H          0.07938        2.52231        1.06767
C         -0.37328        5.15665        0.71027
Pd        -0.05569       -0.22040        1.47689
C          1.09418        1.75011       -4.37940
C         -0.52017       -1.18039       -4.62141
H          1.79693        0.95282       -4.13515
H          0.70221        1.56033       -5.37936
H          1.65657        2.68431       -4.41185
H         -0.01130       -0.87589       -5.53673
H         -1.06282       -2.10325       -4.83092
H         -1.25781       -0.41622       -4.37431
H          0.21535       -6.03877       -1.28864
H          0.80889       -4.94871       -0.03911
H         -0.64297       -5.91013        0.24938
H         -3.60379        3.50438        2.66853
H         -5.21934        3.08593        3.23395
H         -3.80051        2.42620        4.05157
H          4.68216       -3.64382        2.40502
H          5.17481       -2.78217        3.86497
H          3.46548       -3.05697        3.54163
H         -0.64396        6.03367        0.12066
H         -1.29256        4.61472        0.93812
H          0.05654        5.50163        1.65163
