111
-148.55197813
P         -2.56512        2.07893        0.50356
P          0.08882        0.33507        0.58576
C         -1.79127        1.68515        2.09420
C         -0.62703        0.94841        2.12239
C         -3.09326        3.85170        0.43147
C         -2.35618        4.59945       -0.65798
C         -2.35640        2.12434        3.27416
H         -3.26120        2.70929        3.24569
C         -1.75738        1.81294        4.48263
H         -2.19917        2.15372        5.40474
C         -0.59484        1.06654        4.50825
H         -0.12961        0.82219        5.44901
C         -0.02803        0.63215        3.32343
H          0.87700        0.04527        3.32519
Pd        -1.09926        1.35099       -1.12817
Cl        -2.56459        2.04174       -2.67485
Cl         0.53991        0.63168       -2.48725
C         -4.61989        3.76259        0.21536
C         -4.18373        1.23836        0.19586
H         -1.27407        4.54469       -0.51620
H         -2.58191        4.17448       -1.63697
H         -2.64133        5.65385       -0.68425
H         -4.94269        4.57760       -0.44843
H         -5.14354        3.93459        1.16713
H         -4.00092        0.46413       -0.56199
C         -5.04917        2.38493       -0.36541
C         -4.73834        0.62676        1.46421
H         -2.85839        4.28513        1.41316
H         -6.10975        2.18587       -0.15192
H         -4.96489        2.41088       -1.46198
H         -5.67739        0.09989        1.27867
H         -4.03350       -0.07979        1.90595
H         -4.93756        1.39928        2.20878
C         -1.33387       -3.89117       -0.32676
C         -0.18245       -3.38014       -0.97850
C          0.22190       -2.09072       -0.67678
C         -0.41765       -1.35531        0.28532
C         -1.46901       -1.88066        0.98990
C         -1.92614       -3.16377        0.73768
O         -1.92221       -5.10595       -0.76863
C          0.60027       -4.17195       -2.03701
H          1.02681       -1.62484       -1.21842
H         -1.93684       -1.26608        1.73840
C         -3.07222       -3.73279        1.58864
C          4.60767        0.80165        0.29153
C          4.06058       -0.31836        0.96873
C          2.68172       -0.43911        1.03032
C          1.86473        0.53725        0.52240
C          2.38935        1.67611       -0.02948
C          3.75882        1.85494       -0.13393
O          5.99880        0.85013        0.00874
C          4.93856       -1.40673        1.60671
H          2.22327       -1.31064        1.46518
H          1.70687        2.41941       -0.40463
C          4.29442        3.15621       -0.75095
C          0.51951       -5.68732       -1.77839
C          0.04322       -3.83898       -3.42940
C          2.09793       -3.79182       -1.99774
C         -4.41630       -3.37911        0.93428
C         -2.94401       -5.25950        1.74136
C         -3.04204       -3.13562        3.01408
C         -2.89344       -4.93594       -1.79371
H         -0.50037       -6.05248       -1.86611
H          1.12933       -6.23967       -2.49291
H          0.87344       -5.92446       -0.77565
H          0.58565       -4.37673       -4.20649
H         -1.00851       -4.10482       -3.50670
H          0.13011       -2.77189       -3.63311
H          2.67779       -4.43246       -2.66172
H          2.26513       -2.76478       -2.31835
H          2.49590       -3.90639       -0.99027
H         -5.25052       -3.73962        1.53555
H         -4.52003       -2.30043        0.82417
H         -4.50108       -3.82093       -0.05553
H         -3.72001       -5.65425        2.39670
H         -3.03644       -5.76334        0.78242
H         -1.97548       -5.52281        2.16515
H         -3.77269       -3.62833        3.65518
H         -2.05924       -3.26395        3.46693
H         -3.28265       -2.07406        3.01418
H         -3.83848       -5.37721       -1.47724
H         -3.03928       -3.87620       -2.00699
H         -2.56601       -5.44590       -2.69941
C          6.35821        0.26098       -1.23480
C          6.25446       -0.81292        2.14163
C          4.21575       -2.05506        2.80933
C          5.23445       -2.49912        0.56844
C          3.33649        4.33382       -0.45898
C          5.66254        3.53470       -0.15531
C          4.40611        2.98301       -2.27350
H          6.86188       -0.40553        1.33725
H          6.05306       -0.00862        2.84839
H          6.84833       -1.57151        2.65089
H          4.88226       -2.73375        3.34109
H          3.87927       -1.29567        3.51474
H          3.35185       -2.63824        2.49382
H          5.84731       -3.29099        0.99834
H          4.30921       -2.94682        0.20839
H          5.76274       -2.09505       -0.29145
H          3.77464        5.27782       -0.78229
H          2.39007        4.22475       -0.98650
H          3.12900        4.40929        0.60810
H          6.41827        2.78944       -0.38968
H          6.00998        4.49010       -0.54774
H          5.59931        3.61610        0.92927
H          5.08927        2.17692       -2.52976
H          4.76905        3.89564       -2.74542
H          3.43480        2.74204       -2.70503
H          6.82261        1.01065       -1.87512
H          7.08209       -0.53602       -1.06557
H          5.47662       -0.14606       -1.73177
