111
-148.55107878
P         -2.02623        2.54767        0.85973
P         -0.21783       -0.04195        0.56224
C         -1.26948        1.80632        2.32703
C         -0.48947        0.67845        2.19577
C         -1.63979        4.35602        0.79477
C         -1.01309        4.72508       -0.53205
C         -1.41809        2.40348        3.56244
H         -2.00701        3.30169        3.65199
C         -0.78993        1.86129        4.67018
H         -0.90788        2.32514        5.63587
C          0.00153        0.73716        4.53530
H          0.50397        0.32347        5.39415
C          0.16161        0.15154        3.29229
H          0.81260       -0.69929        3.16505
Pd        -1.34437        1.31016       -0.96179
Cl        -2.79257        2.47391       -2.22006
Cl        -0.46222        0.11633       -2.64750
C         -3.01129        5.01627        1.04536
C         -3.87678        2.60653        0.89132
H         -0.75883        5.78681       -0.57555
H         -0.10244        4.15041       -0.71481
H         -1.70175        4.51664       -1.35265
H         -3.05841        5.97720        0.51248
H         -3.11887        5.26385        2.11162
H         -4.21682        1.97140        0.06159
C         -4.18351        4.09215        0.61113
C         -4.43435        2.09704        2.20304
H         -0.94242        4.55968        1.61891
H         -5.11393        4.37867        1.12263
H         -4.37885        4.23539       -0.46187
H         -5.52685        2.08715        2.19646
H         -4.08792        1.08261        2.41438
H         -4.11907        2.73349        3.03097
C         -0.93636       -4.54573        0.31935
C         -1.08878       -3.88736        1.56852
C         -0.86695       -2.52115        1.62164
C         -0.58435       -1.80037        0.48927
C         -0.58249       -2.41586       -0.73534
C         -0.79003       -3.77730       -0.86492
O         -0.84953       -5.96060        0.26395
C         -1.48885       -4.60477        2.86909
H         -0.91156       -2.00537        2.56367
H         -0.41634       -1.80811       -1.60705
C         -0.85988       -4.36008       -2.28656
C          3.96649        1.07488       -0.83340
C          3.52373       -0.26377       -0.99109
C          2.24886       -0.58755       -0.56040
C          1.45530        0.34118        0.05802
C          1.91041        1.61198        0.29613
C          3.18004        1.99981       -0.09893
O          5.17981        1.50106       -1.43648
C          4.37631       -1.35175       -1.66259
H          1.85011       -1.57299       -0.71957
H          1.24909        2.30210        0.79198
C          3.67548        3.41107        0.25396
C         -2.59171       -3.79456        3.58599
C         -2.06088       -6.00936        2.60926
C         -0.26362       -4.71175        3.79185
C         -1.79706       -3.48824       -3.15184
C          0.54609       -4.35673       -2.90959
C         -1.42844       -5.78939       -2.30688
C          0.48124       -6.43332        0.39126
H         -3.44181       -3.63313        2.92375
H         -2.94952       -4.32306        4.46926
H         -2.23124       -2.82155        3.91554
H         -2.88833       -5.96253        1.90216
H         -1.30501       -6.67212        2.19451
H         -2.42576       -6.46192        3.53101
H          0.13696       -3.72525        4.02339
H         -0.52541       -5.19669        4.73193
H          0.53066       -5.29146        3.32556
H         -1.92534       -3.92164       -4.14328
H         -2.78071       -3.40672       -2.69046
H         -1.40478       -2.48184       -3.28725
H          0.94862       -3.34539       -2.95525
H          1.23612       -4.96429       -2.32696
H          0.52331       -4.75350       -3.92415
H         -0.76424       -6.48512       -1.79973
H         -2.39520       -5.82538       -1.80593
H         -1.56066       -6.14536       -3.32832
H          1.10401       -6.01511       -0.39809
H          0.89206       -6.13801        1.35528
H          0.48520       -7.52092        0.31620
C          5.02625        1.99937       -2.75955
C          4.03609       -2.74593       -1.08676
C          4.08281       -1.36097       -3.17078
C          5.87718       -1.11983       -1.41179
C          3.33760        4.37674       -0.89175
C          2.99275        3.92322        1.54325
C          5.19230        3.40958        0.51652
H          3.03110       -3.06283       -1.36036
H          4.72300       -3.50045       -1.46945
H          4.11128       -2.74524        0.00029
H          4.32486       -0.40347       -3.62557
H          4.66264       -2.13181       -3.67767
H          3.02662       -1.55551       -3.35579
H          6.47455       -1.92580       -1.83730
H          6.21636       -0.18893       -1.85858
H          6.08428       -1.07164       -0.34327
H          2.26467        4.39347       -1.07867
H          3.65442        5.39160       -0.65266
H          3.82885        4.08181       -1.81527
H          3.43744        4.86313        1.86939
H          1.93055        4.10890        1.39038
H          3.10246        3.20247        2.35320
H          5.53780        4.39593        0.82503
H          5.74825        3.12983       -0.37509
H          5.44462        2.69997        1.30379
H          3.97246        2.01199       -3.04105
H          5.43241        3.00912       -2.81755
H          5.58057        1.37082       -3.45606
