105
-153.06664641
Cl        -0.01928        1.96479        3.06517
Pd        -0.45807        1.29512        0.95450
P         -1.10878        0.49230       -1.15971
N         -0.72355       -1.01911       -1.97850
C          0.19367       -2.00905       -1.62883
C          0.32657       -2.48633       -0.30061
C          1.28714       -3.47967       -0.01804
C          1.40349       -4.00206        1.39434
C          2.22463       -5.29330        1.53395
C          3.49904       -5.22581        0.68775
C          3.15221       -5.03307       -0.79586
C          2.09141       -3.98952       -1.04132
C          1.90505       -3.54080       -2.34277
C          0.97251       -2.58039       -2.63419
H          0.85235       -2.23050       -3.64465
H          2.51641       -3.95171       -3.12839
H          4.05158       -4.76331       -1.36432
H          4.11765       -4.38641        1.02957
H          2.46713       -5.49075        2.58770
H          1.85119       -3.21712        2.01458
C         -0.67268       -2.12292        0.73277
C         -0.24839       -1.53807        1.95700
C         -1.18211       -1.39943        2.98823
C         -2.48261       -1.79851        2.82206
C         -2.91891       -2.36193        1.62915
C         -4.35658       -2.81570        1.54323
C         -4.81898       -3.18747        0.12531
C         -3.74164       -3.99480       -0.60309
C         -2.43901       -3.18854       -0.70963
C         -2.01310       -2.52718        0.57904
H         -1.62669       -3.83507       -1.06444
H         -4.09238       -4.30652       -1.59714
H         -5.03018       -2.27377       -0.44364
H         -5.00030       -2.03077        1.95955
H         -3.18669       -1.67827        3.62801
H         -0.86983       -0.94590        3.91253
N          1.05063       -1.04159        2.14164
P          1.61303        0.18481        1.00699
C          2.61638       -0.35714       -0.36317
C          2.39902        0.20772       -1.59502
C          3.20938       -0.14066       -2.65986
C          4.24361       -1.05177       -2.48936
C          4.46636       -1.58389       -1.22573
C          3.65370       -1.23466       -0.16204
H          3.82127       -1.64019        0.82311
H          5.27797       -2.27609       -1.08051
C          5.11948       -1.42611       -3.63338
H          3.03938        0.29092       -3.63127
H          1.59067        0.90852       -1.71696
C          2.54379        1.48947        1.81676
C          3.24569        1.23008        2.96921
C          3.96170        2.24462        3.57855
C          3.98671        3.52016        3.03051
C          3.27274        3.76005        1.86413
C          2.55815        2.74447        1.25509
H          2.00555        2.92688        0.34631
H          3.27579        4.74855        1.43760
C          4.72993        4.62019        3.70507
H          4.50418        2.05163        4.48827
H          3.23626        0.23655        3.38706
H          1.20742       -0.61649        3.04631
H         -0.99453       -0.92799       -2.94957
C         -0.62431        1.86422       -2.22050
C         -0.88265        3.15611       -1.82947
C         -0.49750        4.21415       -2.63009
C          0.14485        3.98623       -3.83907
C          0.40059        2.67631       -4.22029
C          0.01129        1.62107       -3.41601
H          0.22005        0.60692       -3.71214
H          0.91035        2.48788       -5.14974
C          0.58819        5.12525       -4.68977
H         -0.69256        5.22610       -2.31855
H         -1.38813        3.33056       -0.89451
C         -2.90392        0.52549       -1.08617
C         -3.59038        0.76368       -2.25329
C         -4.97389        0.78645       -2.24728
C         -5.67820        0.58186       -1.06874
C         -4.96730        0.33455        0.09689
C         -3.58559        0.29737        0.08408
H         -3.03232        0.10283        0.98852
H         -5.50358        0.17261        1.01609
C         -7.16708        0.58307       -1.05995
H         -5.51493        0.96692       -3.16038
H         -3.04050        0.93228       -3.16612
Cl        -2.26490        2.64873        1.01582
H          2.81064       -5.98398       -1.22192
H          1.61791       -6.14712        1.20710
H          4.11403       -6.12507        0.83430
H          0.39446       -4.15479        1.79762
H         -3.54989       -4.92446       -0.05275
H         -2.55297       -2.41140       -1.47402
H         -4.48540       -3.67836        2.20790
H         -5.76831       -3.74076        0.15485
H          4.57536       -1.37659       -4.57766
H          5.97608       -0.75423       -3.70197
H          5.49678       -2.44379       -3.52288
H          4.09678        5.12115        4.43859
H          5.61070        4.23967        4.22423
H          5.06731        5.36741        2.98542
H          1.59572        5.44256       -4.41746
H          0.59582        4.84911       -5.74512
H         -0.07680        5.98270       -4.57731
H         -7.55582       -0.42848       -1.18544
H         -7.55353        0.97820       -0.11942
H         -7.56603        1.19986       -1.86640
