58
-89.86228081
P          1.75585       -0.11097        0.84561
C          1.84382        1.68439        0.91267
C          0.78627        2.43940        0.46285
C          0.83424        3.81771        0.54032
C          1.94629        4.43529        1.07639
C          3.00214        3.67599        1.54153
C          2.94691        2.29548        1.46438
H          3.75790        1.69036        1.83775
H         -0.08825        1.94953        0.07662
C          3.30824       -0.82577        0.28666
C          4.22743       -0.04971       -0.38212
C          5.40184       -0.61516       -0.84477
C          5.64415       -1.95916       -0.64203
C          4.71267       -2.73870        0.01454
C          3.53850       -2.16985        0.47533
H          2.79219       -2.77522        0.96481
H          4.01592        0.99261       -0.55700
C          1.35061       -0.70610        2.54484
C         -0.12896       -0.97167        2.77578
C         -1.03480        0.19622        2.39076
P         -1.63544        0.03546        0.65548
C         -2.89381       -1.24670        0.62998
C         -2.54793       -2.57035        0.47991
C         -3.53298       -3.54126        0.46963
C         -4.85801       -3.17980        0.61282
C         -5.20076       -1.85089        0.76537
C         -4.21326       -0.88198        0.77433
H         -4.46479        0.16047        0.88884
H         -1.51180       -2.84089        0.35541
C         -2.33930        1.57768        0.05301
C         -2.69986        2.58136        0.92397
C         -3.21257        3.76717        0.42959
C         -3.36429        3.93831       -0.93240
C         -3.00984        2.92578       -1.80154
C         -2.49767        1.74278       -1.30333
H         -2.22126        0.93698       -1.96338
H         -2.57579        2.43891        1.98512
Pd         0.11904       -0.62550       -0.72229
Cl         1.74944       -1.12436       -2.18543
Cl        -1.48370       -1.19230       -2.20161
H         -1.93169        0.23805        3.01390
H         -0.51726        1.14968        2.50830
H         -0.43729       -1.86123        2.20952
H         -0.28635       -1.23956        3.83249
H          1.94881       -1.59786        2.74379
H          1.71249        0.06716        3.22604
H          0.00127        4.40503        0.19040
H          3.86731        4.15716        1.96726
H          6.12193       -0.00868       -1.36909
H          4.89527       -3.79058        0.16118
H         -3.26573       -4.57781        0.34533
H         -6.23475       -1.56783        0.87486
H         -3.49173        4.55698        1.10753
H         -3.13146        3.05562       -2.86434
H          1.98770        5.51056        1.13779
H          6.55723       -2.40226       -1.00489
H         -5.62606       -3.93592        0.60274
H         -3.76292        4.86273       -1.31746
