45
-71.81297712
C          0.35821        0.42145        2.54021
P          0.97197        0.52820        0.82497
P         -1.63240        0.36323       -0.99777
C         -2.41872        0.15450       -2.62942
Cl         1.85482       -2.38656       -0.07274
H          0.76781        1.23500        3.13208
H         -1.68355        0.30272       -3.41525
Cl        -1.22396       -2.72517       -1.46640
C          0.34156        2.00786        0.00401
C         -0.76974        1.93815       -0.80887
C         -1.25186        3.07582       -1.42270
C         -0.60807        4.28572       -1.23095
C          0.50911        4.35425       -0.42129
C          0.98448        3.21267        0.19982
H         -2.13237        3.01361       -2.04137
H         -0.98136        5.17531       -1.71106
H          1.01000        5.29645       -0.27120
H          1.85454        3.25084        0.83573
Pd         0.00955       -1.16333       -0.42792
H         -3.22272        0.87447       -2.75218
H          0.65193       -0.52605        2.98286
H         -2.82777       -0.84826       -2.71386
C         -4.49984       -0.24680        2.47487
C         -4.15284       -1.31421        1.66991
C         -3.28831       -1.12097        0.60855
C         -2.78453        0.13366        0.35600
C         -3.11892        1.19884        1.16002
C         -3.98270        1.00929        2.22364
H         -5.17288       -0.39514        3.30351
H         -4.54869       -2.29610        1.87092
H         -2.97757       -1.94476       -0.01374
H         -2.70063        2.17107        0.95508
H         -4.24990        1.84048        2.85530
C          5.49899        0.32733        0.42411
C          4.71290        0.66470       -0.65972
C          3.33789        0.72900       -0.51931
C          2.76080        0.46013        0.70090
C          3.53981        0.11810        1.78272
C          4.91474        0.05311        1.64496
H          6.57000        0.27374        0.31594
H          5.16748        0.87342       -1.61419
H          2.70870        0.98440       -1.35780
H          3.07282       -0.10352        2.72847
H          5.52828       -0.21609        2.48901
H         -0.72580        0.49089        2.54864
