58
-89.86617802
P          1.74297       -0.31499        0.88688
C          1.82743        1.48540        0.93544
C          1.70335        2.20736        2.10145
C          1.73461        3.58934        2.06063
C          1.89412        4.24218        0.85443
C          2.02668        3.51657       -0.31209
C          1.99298        2.13536       -0.26704
H          2.08127        1.55032       -1.16913
H          1.58489        1.69714        3.04222
C          3.30956       -1.01535        0.36658
C          3.36309       -2.34231        0.00719
C          4.56414       -2.89438       -0.40202
C          5.70132       -2.11193       -0.44676
C          5.64158       -0.78050       -0.08471
C          4.43944       -0.23116        0.32326
H          4.37552        0.80758        0.60456
H          2.46389       -2.93763        0.03940
C          1.27988       -1.07315        2.50647
C         -0.20933       -1.32651        2.69389
C         -1.08711       -0.10519        2.43168
P         -1.67612       -0.11299        0.69058
C         -2.96733       -1.35630        0.54493
C         -2.80780       -2.44972       -0.27562
C         -3.80736       -3.40189       -0.35753
C         -4.96156       -3.25370        0.38563
C         -5.11793       -2.15705        1.20991
C         -4.11552       -1.20661        1.29023
H         -4.22450       -0.34503        1.93026
H         -1.90812       -2.54976       -0.86027
C         -2.27713        1.50827        0.20166
C         -1.46773        2.60509        0.38611
C         -1.90106        3.85718       -0.00958
C         -3.14403        4.00117       -0.59316
C         -3.95023        2.89654       -0.78598
C         -3.51231        1.64594       -0.38911
H         -4.12452        0.77337       -0.54843
H         -0.48930        2.47570        0.81665
Pd         0.10159       -0.45846       -0.75399
Cl         1.79125       -0.60701       -2.23202
Cl        -1.47668       -0.49592       -2.35651
H         -1.98192       -0.09835        3.05874
H         -0.55211        0.82362        2.63059
H         -0.53260       -2.13902        2.02661
H         -0.38537       -1.70805        3.71219
H          1.84548       -2.00473        2.58881
H          1.66427       -0.41657        3.28819
H          1.63387        4.15674        2.97131
H          2.14978        4.02274       -1.25535
H          4.60985       -3.93206       -0.68897
H          6.52823       -0.16920       -0.12247
H         -3.68609       -4.25547       -1.00407
H         -6.01844       -2.04082        1.79031
H         -1.26485        4.71547        0.13074
H         -4.91678        3.00668       -1.24957
H          1.91643        5.31933        0.82374
H          6.63679       -2.54062       -0.76745
H         -5.74191       -3.99442        0.32131
H         -3.48272        4.97581       -0.90471
