111
-148.55357430
P         -2.09294        2.31824        1.28241
P          0.04043        0.09728        0.52033
C         -1.16487        1.47923        2.58879
C         -0.26128        0.49478        2.25421
C         -1.95649        4.15504        1.42799
C         -1.04488        4.71095        0.35564
C         -1.37119        1.80726        3.91310
H         -2.07206        2.58682        4.16469
C         -0.67901        1.13294        4.90430
H         -0.83974        1.38647        5.93943
C          0.21177        0.13134        4.56842
H          0.74546       -0.39865        5.34009
C          0.41993       -0.19010        3.23898
H          1.10658       -0.97458        2.96090
Pd        -1.50650        1.31634       -0.70793
Cl        -2.90947        2.73194       -1.73815
Cl        -0.95013        0.15174       -2.54673
C         -3.42128        4.62082        1.33154
C         -3.92902        2.11286        1.42703
H         -0.96405        5.79841        0.42397
H         -0.03945        4.28927        0.43150
H         -1.42615        4.46973       -0.63831
H         -3.64409        4.86588        0.28389
H         -3.56392        5.55783        1.89105
H         -4.28112        1.86297        0.41717
C         -4.40587        3.52234        1.82439
C         -4.30266        1.02086        2.40737
H         -1.55276        4.35697        2.42880
H         -4.49194        3.57182        2.91852
H         -5.42115        3.70467        1.44067
H         -3.85626        0.06447        2.12712
H         -3.95068        1.26154        3.41148
H         -5.38548        0.88695        2.46200
C         -1.15116       -4.22382       -0.25765
C         -2.14283       -3.24120       -0.00568
C         -1.72886       -1.94657        0.26078
C         -0.40459       -1.60146        0.19075
C          0.54636       -2.51990       -0.16890
C          0.20147       -3.83461       -0.43511
O         -1.50423       -5.59905       -0.28937
C         -3.64693       -3.55516       -0.00929
H         -2.44110       -1.18436        0.52687
H          1.56949       -2.19368       -0.23499
C          1.29176       -4.81977       -0.88439
C          4.28295        1.08411       -0.84363
C          3.99433        1.02629        0.54384
C          2.69315        0.75702        0.93449
C          1.71819        0.47984        0.01167
C          2.01807        0.44060       -1.32426
C          3.29620        0.70035       -1.78628
O          5.54678        1.55610       -1.28826
C          5.06388        1.27182        1.62033
H          2.42141        0.77034        1.97425
H          1.21911        0.22042       -2.00957
C          3.57913        0.59512       -3.29314
C         -3.97139       -4.71653       -0.96645
C         -4.09743       -3.90291        1.41724
C         -4.45246       -2.33065       -0.50207
C          2.39177       -4.08586       -1.68419
C          1.93006       -5.46930        0.35239
C          0.71272       -5.90346       -1.81224
C         -1.46345       -6.23264        0.98301
H         -3.50333       -5.64207       -0.64088
H         -5.04553       -4.89189       -1.02051
H         -3.61221       -4.49639       -1.97119
H         -3.90172       -3.07328        2.09627
H         -5.16491       -4.11967        1.44772
H         -3.56627       -4.77317        1.79621
H         -5.50329       -2.58638       -0.63548
H         -4.41245       -1.50680        0.20833
H         -4.06975       -1.97559       -1.45863
H          3.10239       -4.79581       -2.10676
H          1.95526       -3.52014       -2.50652
H          2.95974       -3.39987       -1.05755
H          2.36896       -4.71234        1.00201
H          1.19185       -6.01705        0.93368
H          2.71731       -6.16594        0.06532
H          1.49797       -6.56001       -2.18615
H         -0.01407       -6.52318       -1.29286
H          0.21392       -5.44911       -2.66767
H         -0.76800       -7.07124        0.95100
H         -1.14467       -5.52556        1.74991
H         -2.45199       -6.61758        1.23279
C          5.59858        2.96038       -1.50724
C          6.44355        0.77313        1.15322
C          5.12474        2.77181        1.94590
C          4.72291        0.50131        2.91652
C          2.66492       -0.46595       -3.94732
C          3.30315        1.95263       -3.95704
C          5.03104        0.15695       -3.55691
H          6.79268        1.32654        0.28505
H          7.18916        0.88942        1.93937
H          6.39859       -0.28099        0.88150
H          5.38829        3.35597        1.06769
H          4.15869        3.12782        2.30316
H          5.86599        2.97374        2.71873
H          3.83821        0.90615        3.40583
H          4.54761       -0.55345        2.70606
H          5.54180        0.56777        3.63251
H          2.74351       -1.41808       -3.42443
H          1.62055       -0.15789       -3.94473
H          2.94626       -0.63122       -4.98701
H          3.93832        2.73156       -3.54227
H          3.48396        1.90631       -5.03059
H          2.26697        2.25257       -3.80196
H          5.24397       -0.78619       -3.05469
H          5.74139        0.89531       -3.19391
H          5.21206        0.02209       -4.62298
H          6.37927        3.39822       -0.88540
H          5.84376        3.15993       -2.55020
H          4.63925        3.41928       -1.26484
