75
-122.80831845
P          1.92376       -0.42109       -0.10270
C          3.34490       -1.00773       -1.05138
C          3.87475       -2.25042       -0.78418
C          4.97530       -2.70152       -1.48926
C          5.54402       -1.90295       -2.46083
C          5.01412       -0.65657       -2.72667
C          3.91384       -0.21033       -2.01793
H          3.48081        0.75474       -2.22897
H          5.45254       -0.03335       -3.48867
H          6.40058       -2.25337       -3.01327
H          5.38791       -3.67470       -1.27947
H          3.43021       -2.86428       -0.01885
C          1.64630       -1.56630        1.24758
C          2.07072       -1.24686        2.51654
C          1.94030       -2.17220        3.53610
C          1.39321       -3.41261        3.27294
C          0.97094       -3.72837        1.99666
C          1.09832       -2.79989        0.97937
H          0.78173       -3.03370       -0.02519
H          0.53908       -4.69438        1.79309
H          1.28873       -4.13355        4.06721
H          2.26587       -1.92485        4.53305
H          2.50560       -0.27775        2.70145
C          2.28581        1.23781        0.50665
C          3.50470        1.85925        0.35491
C          3.67503        3.18507        0.72764
C          2.58456        3.87798        1.25116
C          1.36156        3.26678        1.41775
C          1.21746        1.91235        1.07704
O          0.01964        1.21946        1.28955
C         -1.17160        1.89705        0.99724
C         -1.33412        3.26843        1.24693
C         -2.51131        3.88217        0.87940
C         -3.54463        3.16652        0.27461
C         -3.37178        1.80892        0.04392
C         -2.20672        1.18098        0.41717
P         -1.80632       -0.55503        0.14614
C         -1.74662       -1.40553        1.73930
C         -1.27694       -0.77180        2.86684
C         -1.30175       -1.41733        4.08838
C         -1.79501       -2.70349        4.17526
C         -2.25949       -3.34278        3.04332
C         -2.23586       -2.68992        1.82412
H         -2.60498       -3.17657        0.93577
H         -2.64160       -4.34823        3.10860
H         -1.81127       -3.21111        5.12586
H         -0.92863       -0.91972        4.96836
H         -0.87473        0.22241        2.78403
C         -3.09581       -1.37850       -0.80855
C         -4.39577       -1.30850       -0.36123
C         -5.39981       -1.95848       -1.05581
C         -5.09266       -2.68397       -2.18942
C         -3.78506       -2.76698       -2.62434
C         -2.78368       -2.11689       -1.92708
H         -1.75937       -2.18024       -2.25649
H         -3.54390       -3.33613       -3.50707
H         -5.87396       -3.18927       -2.73339
H         -6.41871       -1.90122       -0.70964
H         -4.61756       -0.76191        0.54193
Pd        -0.04709       -0.14689       -1.42026
Cl        -1.74007        0.69217       -2.65891
Cl         1.31082       -0.10675       -3.20348
H         -4.14283        1.25078       -0.45572
C         -4.78983        3.85285       -0.16138
H         -4.70884        4.17558       -1.20009
H         -4.99028        4.73308        0.45075
H         -5.65215        3.18966       -0.08109
H         -2.62936        4.93587        1.06102
S         -0.02997        4.16833        2.04607
H          2.69446        4.91098        1.53081
C          4.99964        3.84593        0.58221
H          4.33331        1.31498       -0.06222
H          5.63644        3.62952        1.44089
H          5.51405        3.49892       -0.31497
H          4.89442        4.92886        0.50540
