111
-148.55397659
P         -1.41540        2.60062        1.23426
P         -0.29918       -0.27531        0.55336
C         -0.87844        1.50142        2.57508
C         -0.46028        0.22071        2.28116
C         -0.29846        4.06761        1.09588
C          0.49719        4.01930       -0.19141
C         -0.85820        1.94865        3.88067
H         -1.14814        2.96330        4.09965
C         -0.44300        1.10093        4.89307
H         -0.43137        1.44819        5.91331
C         -0.03684       -0.18620        4.59711
H          0.29230       -0.84392        5.38468
C         -0.03452       -0.62407        3.28495
H          0.31505       -1.61289        3.03264
Pd        -1.62709        1.22048       -0.60667
Cl        -2.76956        2.88974       -1.57531
Cl        -1.64639       -0.20106       -2.34609
C         -1.26800        5.26171        1.19829
C         -3.02804        3.44701        1.57385
H          1.13814        4.89743       -0.29889
H          1.13224        3.13228       -0.23504
H         -0.16937        3.98601       -1.05555
H         -1.50311        5.61071        0.18341
H         -0.77729        6.11220        1.69525
H         -3.56879        3.44882        0.61835
C         -2.58778        4.87890        1.92766
C         -3.84815        2.74532        2.63574
H          0.36350        4.03059        1.97087
H         -2.44250        4.94817        3.01444
H         -3.38971        5.59491        1.69118
H         -3.32846        2.73669        3.59405
H         -4.80828        3.24284        2.79016
H         -4.04515        1.70663        2.36068
C         -0.92606       -4.72855       -0.18080
C         -1.72053       -4.05300        0.78026
C         -1.48742       -2.70406        0.99485
C         -0.54845       -2.02334        0.26380
C          0.14879       -2.64947       -0.73578
C         -0.04950       -3.99078       -1.01656
O         -0.98557       -6.14398       -0.28364
C         -2.80113       -4.77044        1.60440
H         -2.03544       -2.16258        1.74665
H          0.85530       -2.07065       -1.30361
C          0.68221       -4.61724       -2.21416
C          3.61511        1.47394       -1.00099
C          3.35418        1.44066        0.39267
C          2.18470        0.84024        0.82719
C          1.26595        0.35104       -0.06447
C          1.46389        0.48321       -1.41402
C          2.61189        1.06823       -1.91726
O          4.88333        1.89861       -1.47930
C          4.31038        2.05204        1.42887
H          1.96549        0.76336        1.87746
H          0.67570        0.16174       -2.07135
C          2.74669        1.27410       -3.43420
C         -3.92155       -3.78761        2.01325
C         -3.46561       -5.89314        0.78683
C         -2.16749       -5.34776        2.87914
C          0.90288       -3.56351       -3.32406
C          2.05089       -5.14460       -1.75851
C         -0.14654       -5.75548       -2.83667
C         -0.02935       -6.82457        0.51914
H         -4.31430       -3.26364        1.14224
H         -4.74818       -4.31822        2.48523
H         -3.56705       -3.04768        2.72937
H         -3.87675       -5.49920       -0.14201
H         -2.75247       -6.67313        0.53158
H         -4.27634       -6.35870        1.34668
H         -2.91368       -5.85270        3.49208
H         -1.38704       -6.06618        2.64040
H         -1.71753       -4.55626        3.47809
H          1.61964       -2.80289       -3.01938
H          1.29498       -4.02851       -4.22823
H         -0.03362       -3.06859       -3.58017
H          1.94431       -5.90585       -0.98940
H          2.59755       -5.58320       -2.59294
H          2.65613       -4.33812       -1.34508
H          0.34191       -6.15596       -3.72462
H         -0.28204       -6.57658       -2.13725
H         -1.13395       -5.39653       -3.12505
H          0.62392       -7.42211       -0.11638
H          0.56842       -6.11056        1.08708
H         -0.54275       -7.49682        1.20642
C          5.83579        0.85126       -1.60993
C          5.03536        3.28196        0.85292
C          3.53135        2.53340        2.67480
C          5.33066        0.99150        1.86825
C          1.35549        1.41763       -4.09356
C          3.52650        2.56448       -3.74504
C          3.45817        0.06226       -4.05372
H          5.66461        3.75470        1.60658
H          5.67321        3.01040        0.01545
H          4.31613        4.02026        0.49964
H          2.71627        3.19764        2.38944
H          3.11401        1.70000        3.23802
H          4.18606        3.08053        3.35267
H          4.82634        0.13062        2.30660
H          5.91805        0.63638        1.02498
H          6.01790        1.39499        2.61146
H          0.79540        0.48426       -4.06017
H          0.76730        2.18882       -3.59667
H          1.45125        1.69482       -5.14299
H          3.04961        3.42345       -3.27396
H          4.54862        2.50751       -3.37854
H          3.57064        2.74701       -4.81841
H          3.55725        0.17740       -5.13278
H          2.89806       -0.85228       -3.86223
H          4.45401       -0.06608       -3.63692
H          5.39066       -0.10527       -1.33310
H          6.18752        0.80513       -2.64046
H          6.69251        1.05369       -0.96750
