111
-148.55783349
P         -2.27426        2.22138        1.26190
P          0.08661        0.27332        0.45091
C         -1.19491        1.54403        2.54424
C         -0.18615        0.67681        2.18890
C         -2.52175        4.04177        1.46856
C         -1.77474        4.80839        0.39894
C         -1.39880        1.86204        3.87152
H         -2.19319        2.53938        4.14032
C         -0.58971        1.30143        4.84483
H         -0.74707        1.54817        5.88211
C          0.41258        0.41949        4.48859
H          1.03806       -0.02286        5.24641
C          0.61201        0.10283        3.15670
H          1.38383       -0.59169        2.86342
Pd        -1.49474        1.47308       -0.77555
Cl        -3.26405        2.47422       -1.71915
Cl        -0.73212        0.38724       -2.58738
C         -4.05344        4.19293        1.41052
C         -4.02354        1.63209        1.42556
H         -0.70131        4.60815        0.44318
H         -2.12087        4.51972       -0.59535
H         -1.92439        5.88584        0.50133
H         -4.34522        4.42089        0.37605
H         -4.37634        5.06016        2.00635
H         -4.33775        1.33990        0.41475
C         -4.77695        2.89761        1.87568
C         -4.13671        0.46265        2.38132
H         -2.14597        4.29689        2.46791
H         -4.85197        2.89390        2.97175
H         -5.81467        2.87485        1.50979
H         -3.50349       -0.37036        2.06943
H         -3.82129        0.75006        3.38553
H         -5.16514        0.10063        2.44990
C         -1.10785       -4.06926       -0.22562
C         -2.09170       -3.04770       -0.24308
C         -1.68953       -1.74643        0.00547
C         -0.36563       -1.43444        0.16866
C          0.60063       -2.40238        0.08630
C          0.26615       -3.72702       -0.14169
O         -1.49932       -5.43415       -0.26372
C         -3.57539       -3.32510       -0.53346
H         -2.41260       -0.95216        0.06363
H          1.62792       -2.10558        0.20632
C          1.38585       -4.77203       -0.26985
C          4.43045        0.88471       -0.80995
C          4.00326        1.34775        0.46288
C          2.68036        1.14991        0.82244
C          1.78083        0.59464       -0.05161
C          2.16215        0.28074       -1.33014
C          3.46773        0.44833       -1.75761
O          5.81452        0.78025       -1.10301
C          4.92524        2.06084        1.46624
H          2.34117        1.42317        1.80597
H          1.41391       -0.09268       -2.00655
C          3.77920        0.17576       -3.23904
C         -4.23584       -2.09836       -1.20540
C         -3.73491       -4.50769       -1.50604
C         -4.31051       -3.61737        0.78299
C          2.67719       -4.12764       -0.82336
C          1.68918       -5.36393        1.11470
C          0.98801       -5.89031       -1.25034
C         -1.75972       -6.00041        1.01432
H         -5.24420       -2.33719       -1.54233
H         -4.32046       -1.25791       -0.51836
H         -3.66081       -1.77482       -2.07271
H         -3.36076       -5.43166       -1.07225
H         -4.78182       -4.66471       -1.76435
H         -3.18206       -4.32338       -2.42659
H         -5.36929       -3.80407        0.60523
H         -3.89505       -4.48934        1.28210
H         -4.22723       -2.77344        1.46704
H          2.47484       -3.59752       -1.75302
H          3.11571       -3.42604       -0.11521
H          3.43128       -4.88696       -1.02923
H          2.00138       -4.58272        1.80742
H          0.81220       -5.84870        1.53668
H          2.48754       -6.10336        1.05706
H          0.72709       -5.47290       -2.22230
H          1.80572       -6.59644       -1.39240
H          0.12987       -6.45006       -0.88663
H         -1.60088       -5.25948        1.79884
H         -2.78851       -6.35792        1.05337
H         -1.09839       -6.85106        1.17810
C          6.35492       -0.48120       -0.74654
C          5.24814        1.10885        2.62956
C          6.23468        2.54145        0.81667
C          4.21056        3.31309        2.02079
C          5.16117        0.70730       -3.65657
C          3.70950       -1.33670       -3.50580
C          2.73331        0.89346       -4.12089
H          4.33732        0.78557        3.13275
H          5.76653        0.21920        2.27699
H          5.88382        1.59756        3.36748
H          6.02643        3.16219       -0.05408
H          6.82972        3.12651        1.51752
H          6.84331        1.70167        0.48950
H          4.87233        3.88004        2.67510
H          3.89889        3.96886        1.20827
H          3.32721        3.05222        2.60126
H          5.31891        0.59268       -4.72874
H          5.25710        1.76396       -3.40935
H          5.95942        0.17215       -3.14781
H          3.92603       -1.55851       -4.55042
H          4.42711       -1.87759       -2.89136
H          2.71671       -1.72464       -3.28093
H          1.73148        0.49670       -3.96619
H          2.96932        0.77519       -5.17805
H          2.71006        1.95976       -3.89839
H          6.25239       -0.64171        0.32550
H          5.82775       -1.27601       -1.27237
H          7.41108       -0.50889       -1.01539
