111
-148.55550034
P         -2.54003        2.06255        1.05699
P          0.11308        0.39914        0.53928
C         -1.43588        1.66856        2.44063
C         -0.26463        0.98158        2.20298
C         -3.30989        3.73596        1.23154
C         -2.70109        4.72311        0.25969
C         -1.76672        2.03862        3.72841
H         -2.69308        2.55771        3.91239
C         -0.91564        1.72647        4.77470
H         -1.17316        2.01504        5.78070
C          0.26090        1.04349        4.53226
H          0.92185        0.79854        5.34732
C          0.58566        0.66584        3.24162
H          1.49199        0.11794        3.03550
Pd        -1.32292        1.57961       -0.83542
Cl        -2.98415        2.37804       -2.11136
Cl         0.01545        1.04270       -2.56325
C         -4.80663        3.45087        1.00457
C         -4.05563        1.00402        0.99991
H         -2.84619        4.39243       -0.76986
H         -3.15710        5.71127        0.35575
H         -1.62550        4.82771        0.42148
H         -5.04065        3.62227       -0.05520
H         -5.42386        4.17063        1.56348
H         -4.16685        0.68901       -0.04639
C         -5.17621        1.98808        1.38379
C         -3.92604       -0.19664        1.91172
H         -3.13379        4.05484        2.26671
H         -5.34879        1.92255        2.46691
H         -6.12591        1.68847        0.91497
H         -3.08836       -0.82991        1.61218
H         -3.74831        0.11637        2.94225
H         -4.83205       -0.80697        1.90072
C         -1.16968       -3.92994       -0.03883
C         -1.11561       -3.39119        1.27278
C         -0.71536       -2.07429        1.42579
C         -0.45141       -1.28750        0.33596
C         -0.60691       -1.77269       -0.93475
C         -1.00370       -3.07835       -1.16065
O         -1.34780       -5.32644       -0.22637
C         -1.44371       -4.22408        2.52164
H         -0.59017       -1.64674        2.40475
H         -0.39869       -1.10702       -1.75423
C         -1.21081       -3.55007       -2.60773
C          4.47074        0.72021       -0.72814
C          3.89926       -0.55159       -0.46863
C          2.57039       -0.60446       -0.08460
C          1.84209        0.53983        0.10991
C          2.41726        1.77385       -0.03881
C          3.74320        1.89938       -0.42164
O          5.75397        0.81148       -1.33002
C          4.67471       -1.86686       -0.64249
H          2.07513       -1.55064        0.04813
H          1.80517        2.64324        0.12989
C          4.35358        3.30421       -0.54532
C         -1.99408       -3.32457        3.65188
C         -2.52780       -5.27400        2.21747
C         -0.16493       -4.91227        3.02248
C         -1.70641       -2.38255       -3.49255
C          0.12510       -4.05958       -3.16987
C         -2.27889       -4.65565       -2.68586
C         -0.13114       -6.06055       -0.28661
H         -2.33304       -3.92709        4.49430
H         -1.23521       -2.64261        4.03244
H         -2.84110       -2.73582        3.30159
H         -2.80819       -5.82018        3.11777
H         -3.42201       -4.79708        1.81748
H         -2.18214       -6.00075        1.48647
H         -0.36338       -5.50137        3.91749
H          0.24635       -5.57751        2.26712
H          0.59938       -4.17454        3.26599
H         -0.93854       -1.62239       -3.62720
H         -1.98046       -2.73839       -4.48533
H         -2.58331       -1.90802       -3.05295
H          0.87656       -3.27054       -3.14989
H          0.50655       -4.89378       -2.58573
H          0.01316       -4.39311       -4.20117
H         -3.21690       -4.31376       -2.24969
H         -2.47015       -4.94353       -3.71930
H         -1.96754       -5.54772       -2.14842
H          0.72231       -5.39567       -0.14716
H         -0.12739       -6.82484        0.49041
H         -0.04985       -6.55758       -1.25306
C          5.72579        0.83430       -2.75180
C          6.16770       -1.67799       -0.31907
C          4.13769       -2.94926        0.32260
C          4.50160       -2.37083       -2.08350
C          3.69519        4.27581        0.46055
C          5.86015        3.28727       -0.22905
C          4.11505        3.83585       -1.96692
H          6.70546       -2.62355       -0.38402
H          6.63911       -0.98368       -1.01000
H          6.29488       -1.28386        0.68864
H          4.76726       -3.83837        0.29512
H          4.12284       -2.58147        1.34825
H          3.12981       -3.26461        0.05612
H          5.02954       -3.31209       -2.23432
H          3.44815       -2.53437       -2.30969
H          4.88556       -1.65119       -2.80233
H          3.73240        3.87091        1.47155
H          4.21117        5.23570        0.46524
H          2.65476        4.47449        0.20792
H          6.27745        4.29356       -0.25610
H          6.03934        2.87216        0.76216
H          6.41043        2.68453       -0.94700
H          3.04890        3.87473       -2.18924
H          4.58352        3.19645       -2.71106
H          4.52149        4.84030       -2.08206
H          6.29604       -0.00811       -3.14285
H          4.69787        0.77724       -3.11231
H          6.18737        1.75338       -3.11241
