111
-148.55037411
P         -2.68991        2.02307       -0.38409
P          0.05812        0.59620        0.26764
C         -1.86849        2.32982        1.20424
C         -0.65299        1.73691        1.46636
C         -3.56790        3.54523       -0.97034
C         -3.10818        3.95672       -2.35142
C         -2.45463        3.14277        2.15365
H         -3.41047        3.59685        1.94977
C         -1.81768        3.35974        3.36345
H         -2.27543        3.99367        4.10524
C         -0.59845        2.76342        3.62253
H         -0.10426        2.92973        4.56555
C         -0.01544        1.94584        2.67119
H          0.92887        1.46035        2.86149
Pd        -1.13709        0.91230       -1.69609
Cl        -2.57010        1.01980       -3.41098
Cl         0.58043       -0.10899       -2.73153
C         -5.05571        3.14097       -0.89706
C         -4.10980        0.84333       -0.26470
H         -3.34878        3.18403       -3.08246
H         -3.59435        4.87900       -2.67818
H         -2.02744        4.11411       -2.38069
H         -5.61214        3.64527       -1.70048
H         -5.49743        3.50639        0.04165
H         -3.82016       -0.06131       -0.81704
C         -5.24335        1.59990       -0.98675
C         -4.41434        0.50865        1.17915
H         -3.33710        4.33799       -0.24603
H         -6.21357        1.30124       -0.56342
H         -5.27490        1.29989       -2.04466
H         -5.24247       -0.19941        1.26137
H         -3.54456        0.07292        1.67532
H         -4.69148        1.40764        1.73272
C         -1.18295       -3.68290        1.22647
C         -0.44007       -3.39836        0.05250
C         -0.12021       -2.07873       -0.21330
C         -0.43097       -1.08023        0.67009
C         -1.05709       -1.36209        1.85547
C         -1.42146       -2.65856        2.17855
O         -1.71285       -4.98355        1.43943
C          0.00797       -4.48221       -0.94017
H          0.36521       -1.80149       -1.13261
H         -1.25643       -0.54908        2.53054
C         -2.07889       -2.94165        3.53876
C          4.60141        0.83577        0.06599
C          3.81890        1.61412       -0.82527
C          2.43950        1.55814       -0.70949
C          1.84113        0.70693        0.18134
C          2.59060       -0.12607        0.97078
C          3.97424       -0.11174        0.91432
O          6.00794        1.02340        0.12965
C          4.44195        2.50429       -1.91241
H          1.80809        2.17017       -1.33023
H          2.07297       -0.79855        1.63318
C          4.76968       -1.10617        1.77449
C         -1.06642       -4.65250       -2.02482
C          1.33574       -4.07722       -1.62194
C          0.26459       -5.82096       -0.22508
C         -3.60733       -2.90150        3.39043
C         -1.63624       -4.31165        4.08394
C         -1.66209       -1.88132        4.58314
C         -2.99475       -5.19162        0.85992
H         -2.01961       -4.94919       -1.59399
H         -1.22310       -3.71652       -2.56068
H         -0.77284       -5.41128       -2.74966
H          1.20582       -3.22376       -2.28555
H          2.09058       -3.82138       -0.87902
H          1.72537       -4.89545       -2.22702
H         -0.64463       -6.21464        0.22161
H          0.64145       -6.57067       -0.92034
H          0.99920       -5.69588        0.56978
H         -4.09691       -3.09463        4.34463
H         -3.93555       -1.92538        3.03573
H         -3.95490       -3.64621        2.67924
H         -0.55035       -4.36348        4.15597
H         -2.05129       -4.49180        5.07528
H         -1.96695       -5.12052        3.43675
H         -2.07624       -0.90157        4.34861
H         -2.02427       -2.15218        5.57464
H         -0.57716       -1.79356        4.63605
H         -2.93229       -5.96540        0.09522
H         -3.68973       -5.53039        1.62819
H         -3.36546       -4.26797        0.41356
C          6.41855        2.02642        1.05001
C          4.67460        3.91353       -1.34791
C          5.76789        1.91042       -2.42201
C          3.49941        2.60898       -3.13367
C          6.07374       -1.52423        1.07119
C          5.08342       -0.46472        3.13441
C          3.95334       -2.39720        2.01455
H          3.73579        4.35442       -1.01355
H          5.35076        3.89057       -0.49663
H          5.10606        4.57012       -2.10303
H          6.17502        2.50435       -3.23990
H          6.51698        1.87796       -1.63484
H          5.61830        0.89332       -2.78276
H          2.59739        3.17253       -2.90040
H          3.99134        3.12111       -3.96021
H          3.20418        1.61906       -3.48076
H          5.86207       -1.93946        0.08641
H          6.74212       -0.67689        0.93925
H          6.60726       -2.27776        1.65001
H          5.67808        0.43789        3.01628
H          4.16448       -0.19084        3.65229
H          5.63852       -1.15245        3.77188
H          3.08797       -2.21563        2.65032
H          4.56150       -3.15268        2.51149
H          3.60448       -2.81640        1.07124
H          6.96237        2.80850        0.52053
H          5.55274        2.46044        1.55169
H          7.08739        1.58941        1.79129
