171
-217.84661656
P         -1.62708        0.38145       -0.30917
P          1.61857       -0.42463       -0.26175
C         -0.85851        1.32589       -1.62761
C          0.87885       -1.39656       -1.57847
C         -0.07655        0.68670       -2.58282
C          0.55768        1.46585       -3.56933
C          0.37204        2.83859       -3.57117
C         -0.41686        3.45122       -2.62036
C         -1.02832        2.68850       -1.64515
C          1.06098       -2.75764       -1.55579
C          0.46184       -3.55407       -2.51156
C         -0.33372       -2.97692       -3.47878
C         -0.53303       -1.60674       -3.51696
C          0.09671       -0.79207       -2.55665
Cl         1.58354        0.48263        2.83419
Cl        -1.62760       -0.38169        2.88001
C         -1.40832       -1.02614       -4.57194
C          1.40443        0.83755       -4.62020
H         -0.55856        4.51938       -2.63853
H         -1.64417        3.15828       -0.89562
H          1.67308       -3.19954       -0.78606
H          0.61261       -4.62109       -2.49722
H          0.85622        3.42972       -4.33014
H         -0.81582       -3.59447       -4.21782
C         -3.95328       -3.22092       -1.73877
C         -2.96018       -3.40256       -0.78478
C         -2.25180       -2.28386       -0.36436
C         -2.51781       -1.05154       -0.90676
C         -3.48979       -0.89089       -1.86388
C         -4.23642       -1.98086       -2.29686
H         -4.53897       -4.06923       -2.04126
H         -1.49315       -2.36081        0.39505
H         -3.66704        0.09560       -2.25765
C         -4.39504        2.91198        2.24757
C         -4.93711        1.89665        1.47001
C         -4.06975        1.14510        0.68808
C         -2.72455        1.41883        0.67282
C         -2.20818        2.43279        1.44104
C         -3.03362        3.19085        2.26127
H         -5.05642        3.49000        2.86494
H         -4.43737        0.32823        0.09375
H         -1.14826        2.61961        1.41459
C          4.47982       -2.87754        2.26428
C          3.11945       -3.14268        2.35720
C          2.25661       -2.40219        1.55856
C          2.74515       -1.43081        0.71944
C          4.09287       -1.17830        0.64752
C          4.99240       -1.90413        1.41704
H          5.15948       -3.43615        2.88129
H          1.19327       -2.56258        1.60180
H          4.43760       -0.39582       -0.00405
C          3.85076        3.26141       -1.62843
C          2.89053        3.38755       -0.63313
C          2.21043        2.24216       -0.23937
C          2.46978        1.03849       -0.84505
C          3.41380        0.93156       -1.83729
C          4.13327        2.04917       -2.24521
H          4.41184        4.13117       -1.91662
H          1.48715        2.27276        0.55676
H          3.59246       -0.03485       -2.27716
Pd        -0.02762       -0.04044        1.34891
C         -2.47207       -5.80559       -1.33644
C         -2.70846       -4.79694       -0.19628
C         -3.93612       -5.22267        0.62790
C         -1.47078       -4.80546        0.72060
H         -1.63544       -5.49258       -1.95974
H         -2.24550       -6.79525       -0.94016
H         -3.34882       -5.89846       -1.97586
H         -3.78711       -6.20721        1.07089
H         -4.12235       -4.51335        1.43415
H         -4.83068       -5.26552        0.00736
H         -1.27738       -5.80852        1.10058
H         -0.58358       -4.47760        0.17946
H         -1.61494       -4.15075        1.57978
C         -6.71848       -2.12112       -2.57333
C         -5.39078       -1.83957       -3.29980
C         -5.21416       -2.84794       -4.45161
C         -5.44891       -0.42117       -3.89984
H         -6.86146       -1.42509       -1.74766
H         -7.56502       -2.01852       -3.25202
H         -6.73649       -3.13099       -2.16469
H         -4.26670       -2.69194       -4.96504
H         -5.23303       -3.87498       -4.08971
H         -6.01337       -2.74260       -5.18515
H         -4.51539       -0.16946       -4.40243
H         -6.25147       -0.34408       -4.63323
H         -5.63788        0.32519       -3.12860
C         -6.83535        1.18113        2.93910
C         -6.44573        1.61563        1.51484
C         -6.84288        0.49494        0.53365
C         -7.21687        2.89176        1.12939
H         -7.89974        0.95538        3.00140
H         -6.28230        0.28920        3.23302
H         -6.61633        1.96385        3.66450
H         -7.91804        0.31846        0.56154
H         -6.57780        0.76107       -0.48942
H         -6.34932       -0.44316        0.78708
H         -8.29183        2.71193        1.12777
H         -7.01744        3.70355        1.82774
H         -6.92958        3.22836        0.13339
C         -2.04774        5.48730        2.22078
C         -2.43047        4.30567        3.12744
C         -1.17838        3.77701        3.85684
C         -3.42877        4.79951        4.19302
H         -1.58143        6.28763        2.79506
H         -1.34938        5.17461        1.44653
H         -2.92922        5.89417        1.72554
H         -1.42281        2.89619        4.45014
H         -0.39184        3.49919        3.15767
H         -0.76889        4.53287        4.52659
H         -2.96482        5.54146        4.84285
H         -4.29878        5.26826        3.73407
H         -3.76949        3.97497        4.81905
C          3.25210       -5.55565        3.03530
C          2.61275       -4.19224        3.35605
C          1.08145       -4.34497        3.28985
C          2.99660       -3.75644        4.78188
H          2.89043       -6.32565        3.71658
H          3.00987       -5.86392        2.01834
H          4.33708       -5.51634        3.12384
H          0.58103       -3.40657        3.52846
H          0.76884       -4.66356        2.29665
H          0.73461       -5.09383        4.00167
H          2.63154       -4.47006        5.52023
H          4.07741       -3.68143        4.89544
H          2.56777       -2.78137        5.01258
C          6.85828       -0.54273        0.34952
C          6.50394       -1.63991        1.37292
C          7.23690       -2.93340        0.97236
C          6.97773       -1.18156        2.76407
H          6.38273        0.40333        0.60786
H          7.93447       -0.37282        0.32062
H          6.54184       -0.82717       -0.65382
H          6.89382       -3.28398       -0.00090
H          8.31268       -2.76930        0.91210
H          7.06181       -3.72903        1.69550
H          8.04597       -0.96555        2.76131
H          6.45067       -0.27824        3.07068
H          6.79379       -1.94732        3.51674
C          3.90590        5.17649        0.79453
C          2.64238        4.75001        0.02684
C          1.46240        4.68603        1.01418
C          2.31201        5.79522       -1.05497
H          3.75686        6.13590        1.28960
H          4.16021        4.43889        1.55552
H          4.75966        5.27367        0.12468
H          1.67529        4.00331        1.83634
H          1.26153        5.66693        1.44465
H          0.55776        4.34960        0.50895
H          2.09695        6.76513       -0.60682
H          3.14117        5.92705       -1.74878
H          1.43939        5.48940       -1.63064
C          5.01180        2.99885       -4.40455
C          5.25948        1.96860       -3.28601
C          5.34698        0.56733       -3.92160
C          6.60053        2.27575       -2.59465
H          4.04886        2.82975       -4.88387
H          5.01669        4.01669       -4.01695
H          5.78423        2.93377       -5.17069
H          5.57600       -0.19053       -3.17275
H          4.41138        0.29754       -4.40995
H          6.13470        0.53269       -4.67407
H          6.60038        3.27528       -2.16108
H          6.79230        1.56431       -1.79218
H          7.42737        2.21752       -3.30227
H         -1.68685        0.00272       -4.34034
H          0.83910        0.69461       -5.54200
H         -2.32921       -1.60104       -4.66741
H         -0.90806       -1.03231       -5.54131
H          1.78036       -0.13495       -4.29946
H          2.26551        1.46382       -4.85231
