58
-89.86221110
P          1.66856        0.23922        0.89438
C          2.25167        1.90233        0.51831
C          2.37186        2.27888       -0.79992
C          2.82883        3.54230       -1.12382
C          3.17342        4.42406       -0.11938
C          3.06766        4.04099        1.20301
C          2.60880        2.77543        1.52201
H          2.54321        2.46491        2.55173
H          2.12883        1.56787       -1.57186
C          2.97373       -0.95697        0.59362
C          4.27428       -0.52727        0.46127
C          5.28080       -1.44524        0.22131
C          4.97550       -2.78786        0.11506
C          3.66867       -3.21411        0.24790
C          2.66435       -2.29379        0.48868
H          1.63845       -2.61251        0.58114
H          4.49538        0.52505        0.53974
C          1.16724        0.10557        2.66072
C          0.05504       -0.90398        2.90497
C         -1.32671       -0.33989        2.61780
P         -1.72772       -0.17253        0.82286
C         -2.74629       -1.57697        0.35950
C         -2.18973       -2.83526        0.33725
C         -2.96300       -3.92103       -0.03319
C         -4.28733       -3.73675       -0.37894
C         -4.84021       -2.47140       -0.35634
C         -4.06455       -1.38781        0.01408
H         -4.47877       -0.39268        0.02830
H         -1.15160       -2.96285        0.60007
C         -2.60772        1.36951        0.50827
C         -3.27932        2.01762        1.52149
C         -3.95684        3.19455        1.25732
C         -3.96569        3.71367       -0.02201
C         -3.30762        3.05324       -1.03970
C         -2.63389        1.87673       -0.77103
H         -2.15397        1.32808       -1.56379
H         -3.28943        1.59696        2.51348
Pd         0.04899       -0.29193       -0.68483
Cl         1.72445       -0.55542       -2.16364
Cl        -1.52206       -0.74201       -2.23305
H         -2.11258       -0.97020        3.04214
H         -1.42947        0.64313        3.08012
H          0.22695       -1.80443        2.30148
H          0.09540       -1.24366        3.95182
H          2.07691       -0.15529        3.20788
H          0.86147        1.09449        3.00647
H          2.92096        3.83414       -2.15708
H          3.34567        4.72619        1.98699
H          6.29988       -1.11183        0.11372
H          3.42949       -4.26109        0.15903
H         -2.53018       -4.90763       -0.05601
H         -5.87218       -2.32676       -0.63086
H         -4.48047        3.70373        2.04978
H         -3.32538        3.44775       -2.04237
H          3.53171        5.40983       -0.36773
H          5.75807       -3.50404       -0.07556
H         -4.88958       -4.58170       -0.67055
H         -4.49405        4.63029       -0.22799
