45
-71.81317717
C          1.62710        0.87395        2.62595
P          1.32570        0.74018        0.83283
P         -1.30165        0.25619       -0.86214
C         -1.19363       -0.19517       -2.62516
Cl         1.47972       -2.35776        1.63924
H          0.68222        0.97480        3.15229
H         -0.17155       -0.07603       -2.97362
Cl        -0.92630       -2.97720       -0.52259
C          0.39746        2.15035        0.20238
C         -0.70500        1.93717       -0.59474
C         -1.36131        3.00671       -1.16980
C         -0.92228        4.29590       -0.92491
C          0.17276        4.51006       -0.11065
C          0.83845        3.43450        0.45046
H         -2.21153        2.82720       -1.80830
H         -1.43608        5.13250       -1.36912
H          0.51523        5.51377        0.08032
H          1.70782        3.58720        1.06981
Pd         0.10755       -1.16964        0.31344
H         -1.84593        0.44468       -3.21246
H          2.24557        1.74181        2.83602
H         -1.49550       -1.22971       -2.76169
C         -5.56011       -0.28054        0.68809
C         -4.99796        0.97999        0.65556
C         -3.70546        1.14709        0.19281
C         -2.98059        0.05762       -0.23723
C         -3.53714       -1.20027       -0.19233
C         -4.82948       -1.37324        0.26689
H         -6.56748       -0.41228        1.04800
H         -5.56484        1.83315        0.99050
H         -3.25724        2.12584        0.17516
H         -2.94247       -2.04812       -0.48801
H         -5.26130       -2.35996        0.30244
C          5.21372        0.27854       -1.50245
C          4.45577        1.42342       -1.64928
C          3.27651        1.56501       -0.94066
C          2.86226        0.56544       -0.08899
C          3.61253       -0.57938        0.05104
C          4.79267       -0.72553       -0.65352
H          6.13263        0.16665       -2.05449
H          4.78124        2.20546       -2.31550
H          2.67433        2.45112       -1.05279
H          3.25386       -1.36563        0.69396
H          5.37794       -1.62378       -0.54436
H          2.13652       -0.01704        2.98183
