171
-217.83502770
P         -1.52471        0.16481       -0.20903
P          1.69599       -0.72520        0.20904
C         -0.69458        0.65971       -1.73524
C          0.85832       -1.97131       -0.79821
C          0.01854       -0.29904       -2.44411
C          0.67469        0.07123       -3.63386
C          0.55982        1.37474       -4.08758
C         -0.14767        2.31603       -3.36989
C         -0.76782        1.95381       -2.19083
C          0.94349       -3.25262       -0.30719
C          0.28773       -4.28815       -0.94435
C         -0.47918       -4.02376       -2.05870
C         -0.59514       -2.73758       -2.55807
C          0.10315       -1.68903       -1.93049
Cl         1.15004       -0.38704        3.43255
Cl        -1.95346       -1.06174        2.85190
C         -1.47308       -2.49837       -3.73596
C          1.47646       -0.91786       -4.40622
H         -0.21101        3.33224       -3.72346
H         -1.30037        2.69164       -1.61806
H          1.52257       -3.43842        0.58550
H          0.36572       -5.29339       -0.56360
H          1.03504        1.64918       -5.01384
H         -1.00879       -4.82267       -2.54998
C         -4.67689       -2.91356       -1.28234
C         -3.83569       -3.17304       -0.20644
C         -2.87764       -2.22138        0.11314
C         -2.76775       -1.06381       -0.61412
C         -3.60461       -0.82548       -1.67639
C         -4.58049       -1.74769       -2.03382
H         -5.43324       -3.63157       -1.53370
H         -2.22583       -2.37475        0.95439
H         -3.49369        0.08779       -2.23475
C         -3.73657        3.76870        1.50306
C         -3.88619        3.44602        0.16095
C         -3.22146        2.32345       -0.31728
C         -2.40090        1.58379        0.50089
C         -2.27656        1.92101        1.82761
C         -2.94258        3.01574        2.35762
H         -4.26123        4.62339        1.88651
H         -3.33737        2.02382       -1.34340
H         -1.67469        1.31493        2.47797
C          5.77469       -2.38966        1.25478
C          5.31440       -2.47862       -0.05306
C          4.04807       -1.97780       -0.32912
C          3.28891       -1.41443        0.66719
C          3.75893       -1.33881        1.95297
C          5.01685       -1.82905        2.27552
H          6.75425       -2.76674        1.48493
H          3.63935       -2.02598       -1.32431
H          3.12475       -0.90219        2.70199
C          2.72536        3.42594       -1.30037
C          1.80355        3.31310       -0.26632
C          1.46043        2.03635        0.15906
C          2.01975        0.92666       -0.43183
C          2.93984        1.06020       -1.44257
C          3.31351        2.31858       -1.89799
H          3.01844        4.40169       -1.63903
H          0.77055        1.91247        0.97483
H          3.37975        0.17196       -1.86050
Pd        -0.16030       -0.47397        1.61780
C         -5.05208       -5.38365        0.14124
C         -3.95881       -4.43218        0.66358
C         -4.31644       -4.01417        2.10213
C         -2.61749       -5.18739        0.66495
H         -6.03059       -4.90408        0.15632
H         -4.83812       -5.70369       -0.87842
H         -5.11482       -6.27760        0.76165
H         -3.54457       -3.37655        2.53162
H         -5.25426       -3.45951        2.11970
H         -4.42624       -4.88592        2.74674
H         -2.67833       -6.09045        1.27191
H         -2.34166       -5.48002       -0.34756
H         -1.81527       -4.57012        1.06742
C         -6.42378       -2.63061       -3.55270
C         -5.55860       -1.41394       -3.17064
C         -4.78422       -0.96465       -4.42531
C         -6.48252       -0.27528       -2.70339
H         -5.80084       -3.47645       -3.84344
H         -7.06138       -2.93823       -2.72431
H         -7.07488       -2.39282       -4.39388
H         -4.18677       -0.07473       -4.23264
H         -4.11630       -1.75243       -4.77103
H         -5.46963       -0.72909       -5.23932
H         -5.90713        0.61326       -2.44714
H         -7.19453       -0.00296       -3.48226
H         -7.04501       -0.57363       -1.81890
C         -4.27435        5.78186       -0.67204
C         -4.76301        4.32248       -0.74462
C         -6.22368        4.23636       -0.26840
C         -4.69608        3.86741       -2.21609
H         -4.86047        6.42215       -1.33106
H         -4.35821        6.18126        0.33779
H         -3.22969        5.85276       -0.97469
H         -6.32534        4.59030        0.75697
H         -6.87622        4.84108       -0.89793
H         -6.57920        3.20663       -0.30345
H         -3.67263        3.89877       -2.58975
H         -5.07573        2.85320       -2.33245
H         -5.29956        4.51725       -2.84967
C         -3.59451        4.58081        4.25658
C         -2.78600        3.33385        3.85127
C         -1.30073        3.59218        4.16367
C         -3.28588        2.13384        4.67771
H         -3.47070        4.79336        5.31841
H         -3.26300        5.45955        3.70357
H         -4.65864        4.43563        4.07145
H         -1.15903        3.82834        5.21803
H         -0.68964        2.72012        3.93381
H         -0.92667        4.43081        3.57746
H         -3.20734        2.33536        5.74576
H         -4.32928        1.91767        4.44966
H         -2.70566        1.23671        4.46500
C          6.56877       -4.53709       -0.74919
C          6.20275       -3.09421       -1.14304
C          7.48330       -2.25176       -1.28629
C          5.48565       -3.12946       -2.50763
H          7.12994       -4.56388        0.18405
H          5.66988       -5.13901       -0.61682
H          7.18031       -5.00815       -1.51859
H          8.05174       -2.23560       -0.35707
H          8.12965       -2.65339       -2.06651
H          7.23908       -1.22197       -1.54672
H          5.23121       -2.12479       -2.84460
H          6.12360       -3.57920       -3.26831
H          4.57007       -3.71837       -2.45430
C          4.58014       -1.10968        4.67744
C          5.57950       -1.76346        3.70248
C          6.87428       -0.93027        3.70033
C          5.87936       -3.19045        4.19680
H          4.99168       -1.07097        5.68583
H          4.34895       -0.08820        4.37630
H          3.64915       -1.67428        4.72271
H          7.63458       -1.38099        3.06353
H          6.68252        0.07696        3.33086
H          7.28726       -0.84843        4.70560
H          6.62244       -3.67975        3.56822
H          6.26231       -3.17749        5.21708
H          4.97578       -3.79963        4.18291
C         -0.30545        4.54790        0.32770
C          1.22661        4.53863        0.45955
C          1.76841        5.85802       -0.12339
C          1.61868        4.46633        1.94709
H         -0.73690        3.63294        0.72711
H         -0.74133        5.38617        0.87091
H         -0.60251        4.63557       -0.71661
H          2.85280        5.91313       -0.02944
H          1.50530        5.95863       -1.17626
H          1.34821        6.71421        0.40427
H          2.70259        4.44562        2.05809
H          1.23988        5.32962        2.49377
H          1.21950        3.56915        2.41810
C          4.91177        1.16221       -3.50609
C          4.39649        2.51198       -2.96939
C          5.58436        3.27226       -2.35103
C          3.82167        3.32009       -4.14647
H          4.10317        0.58228       -3.94855
H          5.66869        1.31448       -4.27534
H          5.36567        0.57158       -2.71056
H          6.38298        3.40828       -3.08008
H          5.28291        4.25794       -1.99837
H          5.99168        2.72340       -1.50206
H          4.57270        3.46552       -4.92277
H          2.97465        2.80132       -4.59210
H          3.48046        4.30336       -3.82518
H         -1.63801       -1.43334       -3.90341
H          0.84435       -1.48149       -5.09316
H         -2.44814       -2.96434       -3.58589
H         -1.03651       -2.92112       -4.64190
H          1.97095       -1.62770       -3.74106
H          2.24967       -0.42497       -4.99710
