171
-217.84165321
P         -1.62695        0.33602       -0.33565
P          1.61088       -0.35878       -0.32083
C         -0.93369        1.32735       -1.65899
C          0.91649       -1.34213       -1.64820
C         -0.11779        0.72828       -2.61209
C          0.48361        1.54347       -3.59020
C          0.21045        2.90147       -3.60421
C         -0.63133        3.46800       -2.67085
C         -1.19788        2.67474       -1.69343
C          1.17010       -2.69196       -1.66742
C          0.60915       -3.48921       -2.64491
C         -0.22138       -2.92447       -3.58927
C         -0.49129       -1.56575       -3.58436
C          0.10792       -0.74572       -2.60884
Cl         1.62765        0.40362        2.82622
Cl        -1.55753       -0.37832        2.90926
C         -1.40324       -1.00214       -4.61590
C          1.39471        0.97142       -4.61794
H         -0.84304        4.52442       -2.69979
H         -1.85735        3.10866       -0.96001
H          1.81206       -3.12465       -0.91738
H          0.81447       -4.54711       -2.66400
H          0.66593        3.51746       -4.36120
H         -0.67371       -3.54301       -4.34609
C         -4.04723       -3.12077       -1.95400
C         -3.00118       -3.39270       -1.08029
C         -2.26339       -2.32076       -0.59258
C         -2.56313       -1.04148       -0.98738
C         -3.59637       -0.78831       -1.85604
C         -4.36842       -1.82954       -2.35628
H         -4.63196       -3.94432       -2.31802
H         -1.45081       -2.47043        0.09737
H         -3.80935        0.23164       -2.13117
C         -4.22052        2.68740        2.56161
C         -4.75663        1.57182        1.92926
C         -3.95895        0.89740        1.01425
C         -2.68261        1.32537        0.74437
C         -2.16753        2.42552        1.38515
C         -2.92586        3.12707        2.31277
H         -4.81982        3.21705        3.27656
H         -4.32659        0.00962        0.52944
H         -1.15145        2.72068        1.18442
C          4.27561       -2.76621        2.45983
C          2.93971       -3.12593        2.33516
C          2.15027       -2.40168        1.45041
C          2.68500       -1.36559        0.72399
C          4.00878       -1.02735        0.86036
C          4.83266       -1.71693        1.73952
H          4.88789       -3.31061        3.15364
H          1.10192       -2.62129        1.34302
H          4.39865       -0.20256        0.29085
C          3.95851        3.21312       -1.79662
C          2.89393        3.42471       -0.92919
C          2.17995        2.31591       -0.49143
C          2.51119        1.06071       -0.93614
C          3.55464        0.86933       -1.80874
C          4.31626        1.94684       -2.24431
H          4.52905        4.06400       -2.11771
H          1.36235        2.41878        0.20088
H          3.78564       -0.13092       -2.13630
Pd        -0.00952        0.02171        1.33445
C         -2.46554       -5.70198       -1.91070
C         -2.71658       -4.84063       -0.65898
C         -3.92963       -5.38834        0.11435
C         -1.47626       -4.92980        0.24924
H         -1.63149       -5.30649       -2.48889
H         -2.22768       -6.72933       -1.63544
H         -3.33998       -5.72630       -2.55961
H         -3.75266       -6.41194        0.44411
H         -4.13041       -4.77915        0.99552
H         -4.82619       -5.38651       -0.50459
H         -1.27090       -5.96421        0.52448
H         -0.59366       -4.53940       -0.25638
H         -1.62619       -4.36686        1.17020
C         -6.58207       -0.66792       -2.49619
C         -5.56305       -1.52082       -3.27262
C         -6.26485       -2.80763       -3.74835
C         -5.08603       -0.74395       -4.51340
H         -6.14375        0.27899       -2.18299
H         -7.45404       -0.44451       -3.11064
H         -6.92358       -1.19498       -1.60558
H         -6.66344       -3.37263       -2.90595
H         -7.09895       -2.57111       -4.40894
H         -5.57708       -3.44747       -4.30108
H         -4.39561       -1.34496       -5.10310
H         -5.92776       -0.48153       -5.15414
H         -4.58008        0.17973       -4.23538
C         -6.89425        1.91492        3.27282
C         -6.16067        1.03545        2.24219
C         -6.03648       -0.38949        2.81393
C         -6.99270        1.00302        0.94817
H         -7.89081        1.52278        3.47558
H         -6.35408        1.94452        4.21889
H         -7.00948        2.93496        2.90670
H         -7.01532       -0.79551        3.06827
H         -5.57129       -1.06465        2.09650
H         -5.42457       -0.38932        3.71571
H         -8.00306        0.64282        1.14111
H         -7.06529        1.99839        0.51034
H         -6.53973        0.34408        0.20991
C         -2.04036        5.44729        2.01010
C         -2.30486        4.33084        3.03492
C         -0.98026        3.89956        3.69538
C         -3.23393        4.88171        4.13386
H         -1.57069        6.30992        2.48239
H         -1.38459        5.10039        1.21365
H         -2.97215        5.77740        1.55125
H         -1.14896        3.08089        4.39461
H         -0.25628        3.55936        2.95694
H         -0.52977        4.72630        4.24408
H         -2.76397        5.71620        4.65421
H         -4.17111        5.24458        3.71242
H         -3.46044        4.11504        4.87464
C          3.18445       -5.53343        3.01431
C          2.36495       -4.24492        3.21471
C          0.89683       -4.54597        2.85990
C          2.43183       -3.80546        4.68828
H          2.77335       -6.35198        3.60493
H          3.17545       -5.83551        1.96715
H          4.22235       -5.39730        3.31517
H          0.26405       -3.67455        3.02747
H          0.80758       -4.84725        1.81697
H          0.50721       -5.35751        3.47426
H          2.01375       -4.56919        5.34371
H          3.45991       -3.62276        4.99896
H          1.86892       -2.88435        4.83883
C          7.05563       -1.70226        0.59469
C          6.30659       -1.30944        1.87896
C          6.97853       -2.00635        3.07817
C          6.40515        0.21447        2.09281
H          6.61518       -1.21841       -0.27531
H          8.10470       -1.41170        0.64789
H          7.00937       -2.77938        0.43520
H          7.00511       -3.08731        2.94310
H          8.00773       -1.66722        3.19539
H          6.44840       -1.78567        4.00454
H          7.43906        0.51901        2.25416
H          6.03176        0.76614        1.23121
H          5.82376        0.51829        2.96306
C          3.74329        5.38610        0.37577
C          2.56585        4.84705       -0.45586
C          1.29698        4.87103        0.41598
C          2.33150        5.75559       -1.67736
H          3.53528        6.39162        0.74108
H          3.93025        4.74515        1.23723
H          4.65763        5.42682       -0.21524
H          1.43242        4.27962        1.32094
H          1.05511        5.88903        0.72101
H          0.44355        4.47540       -0.13337
H          2.05656        6.76331       -1.36638
H          3.22524        5.83164       -2.29519
H          1.52768        5.36377       -2.29941
C          6.31126        3.00628       -3.42264
C          5.53248        1.70433       -3.15191
C          5.06660        1.12539       -4.49888
C          6.48377        0.70600       -2.46625
H          5.68936        3.73611       -3.94064
H          6.66674        3.45052       -2.49302
H          7.18131        2.81268       -4.04998
H          4.50547        0.20209       -4.35910
H          4.42836        1.83579       -5.02266
H          5.91783        0.90468       -5.14275
H          6.78987        1.07591       -1.48783
H          6.00444       -0.26206       -2.32793
H          7.38164        0.54819       -3.06352
H         -2.22057       -1.69351       -4.82300
H          2.20286        1.66676       -4.84542
H         -0.87315       -0.82364       -5.55215
H         -1.84132       -0.05875       -4.28706
H          0.85947        0.76901       -5.54636
H          1.84534        0.03913       -4.27469
