105
-153.05919672
Cl         0.62283        3.73881        1.41780
Pd        -0.09112        1.98880        0.19579
P         -0.73428        0.23663       -1.28440
N          0.10872       -1.17937       -1.94143
C          0.19105       -2.50747       -1.53493
C         -0.12624       -2.97695       -0.23092
C          0.19932       -4.30555        0.12108
C          0.11557       -4.73739        1.56735
C         -0.05002       -6.25401        1.73560
C          1.03987       -6.99490        0.95468
C          0.98541       -6.64325       -0.54219
C          0.69240       -5.19093       -0.84080
C          0.91478       -4.73004       -2.13138
C          0.69361       -3.41878       -2.46335
H          0.91717       -3.07268       -3.45772
H          1.29239       -5.41528       -2.87152
H          1.93116       -6.91669       -1.02723
H          2.02273       -6.72043        1.35817
H         -0.03801       -6.53790        2.79746
H          1.03398       -4.41232        2.07105
C         -0.71718       -2.10022        0.81527
C          0.10078       -1.10588        1.41115
C         -0.36462       -0.41893        2.53246
C         -1.61015       -0.68577        3.03907
C         -2.44343       -1.63194        2.44892
C         -3.79922       -1.87731        3.05724
C         -4.38530       -3.24505        2.67763
C         -4.32340       -3.45123        1.16123
C         -2.87940       -3.36483        0.63718
C         -2.00605       -2.33836        1.32507
H         -2.40696       -4.34896        0.72498
H         -4.93544       -2.68477        0.67284
H         -5.41579       -3.34792        3.04635
H         -4.47865       -1.07954        2.73520
H         -1.96418       -0.14538        3.90050
H          0.25551        0.33739        2.97745
N          1.26442       -0.74723        0.73693
P          1.81914        0.86896        0.95860
C          2.93538        1.32526       -0.36231
C          3.16578        2.65666       -0.61428
C          3.94192        3.02541       -1.69743
C          4.48741        2.06107       -2.53474
C          4.22954        0.72207       -2.27101
C          3.45397        0.35507       -1.18614
H          3.23852       -0.68243       -0.98792
H          4.63191       -0.03125       -2.92656
C          5.28805        2.45723       -3.72598
H          4.11436        4.06688       -1.90856
H          2.69611        3.39775        0.01318
C          2.60009        0.97236        2.56761
C          3.29668       -0.12423        3.01636
C          3.90773       -0.08938        4.25763
C          3.81697        1.04220        5.05745
C          3.11424        2.14146        4.58205
C          2.50565        2.10280        3.34232
H          1.94925        2.94704        2.97262
H          3.04664        3.02780        5.18949
C          4.49451        1.08943        6.38281
H          4.45850       -0.94352        4.61282
H          3.34887       -1.00483        2.39515
H          1.11809       -0.85687       -0.26578
H          0.30713       -0.98466       -2.91497
C         -0.60974        1.41038       -2.64406
C         -1.71856        1.93092       -3.26713
C         -1.56263        2.84154       -4.29565
C         -0.29576        3.23113       -4.71022
C          0.81110        2.70039       -4.06208
C          0.65257        1.78941       -3.03400
H          1.51030        1.38756       -2.51944
H          1.79796        3.01066       -4.35990
C         -0.12864        4.23659       -5.79571
H         -2.42755        3.26206       -4.77958
H         -2.70103        1.63529       -2.93813
C         -2.46676       -0.19478       -1.12672
C         -3.01211       -0.98776       -2.10817
C         -4.36031       -1.29811       -2.07425
C         -5.16903       -0.81631       -1.05419
C         -4.59934       -0.01702       -0.07246
C         -3.25141        0.28732       -0.10665
H         -2.80963        0.90754        0.65600
H         -5.21999        0.37247        0.71619
C         -6.62596       -1.12367       -1.03356
H         -4.79308       -1.91345       -2.84433
H         -2.37893       -1.35736       -2.89955
Cl        -2.03961        3.01916       -0.23393
H          0.21962       -7.25504       -1.03402
H         -1.03565       -6.55559        1.35953
H          0.95449       -8.08048        1.10438
H         -0.69120       -4.20612        2.08365
H         -4.78216       -4.40997        0.88141
H         -2.88144       -3.14721       -0.43808
H         -3.72756       -1.78126        4.14819
H         -3.81180       -4.03718        3.17542
H          5.80298        3.40405       -3.55747
H          6.04425        1.70640       -3.95927
H          4.64768        2.57349       -4.60146
H          3.97775        1.76510        7.06581
H          4.51747        0.10306        6.84825
H          5.52325        1.43719        6.27957
H         -0.93752        4.16739       -6.52439
H         -0.12785        5.24851       -5.38841
H          0.81111        4.08777       -6.32939
H         -7.17954       -0.41468       -1.65056
H         -6.82132       -2.12686       -1.41523
H         -7.02653       -1.07139       -0.02013
