45
-71.81643467
C          0.43267        0.50203        2.52449
P          0.99409        0.57336        0.78947
P         -1.60362        0.36612       -1.02929
C         -2.36874        0.14315       -2.66984
Cl         1.58319       -2.48477        0.52848
H          0.80465        1.36284        3.07268
H         -2.77137       -0.86210       -2.75472
Cl        -1.04000       -2.64622       -1.69086
C          0.35725        2.03803       -0.04796
C         -0.75811        1.95174       -0.85293
C         -1.25036        3.07969       -1.47678
C         -0.61217        4.29534       -1.30286
C          0.51052        4.37940       -0.50222
C          0.99626        3.24770        0.12892
H         -2.13347        3.00533       -2.09030
H         -0.99342        5.17721       -1.79089
H          1.00755        5.32589       -0.36695
H          1.87078        3.29702        0.75793
Pd        -0.01146       -1.17512       -0.34765
H         -1.62441        0.29111       -3.44699
H          0.79820       -0.40669        2.99426
H         -3.17502        0.85798       -2.80696
C         -4.49888       -0.29044        2.40910
C         -4.21052       -1.32445        1.53970
C         -3.33875       -1.11400        0.48706
C         -2.77127        0.12639        0.30870
C         -3.04535        1.15729        1.17751
C         -3.91608        0.94954        2.23193
H         -5.17693       -0.45296        3.23096
H         -4.65679       -2.29458        1.68420
H         -3.07017       -1.91486       -0.18368
H         -2.57517        2.11609        1.03001
H         -4.13709        1.75361        2.91448
C          5.50422        0.30831        0.26078
C          4.66539        0.25849       -0.83488
C          3.29564        0.34262       -0.65786
C          2.77647        0.47371        0.60994
C          3.60841        0.52448        1.70531
C          4.97816        0.44174        1.53062
H          6.57128        0.24113        0.12479
H          5.07501        0.15151       -1.82583
H          2.62630        0.30407       -1.50330
H          3.18684        0.62626        2.69203
H          5.63324        0.47916        2.38550
H         -0.65295        0.50412        2.56116
