171
-217.84028749
P         -1.50643        0.22987       -0.38819
P          1.66424       -0.72302        0.37332
C         -0.49064        1.04945       -1.63051
C          1.01573       -1.70990       -0.99415
C          0.41397        0.29224       -2.36446
C          1.23242        0.93386       -3.31367
C          1.07720        2.29462       -3.52393
C          0.15837        3.02658       -2.80077
C         -0.62323        2.39808       -1.85172
C          1.00688       -3.06580       -0.76544
C          0.47327       -3.92795       -1.70382
C         -0.06404       -3.41845       -2.86614
C         -0.08091       -2.05530       -3.10858
C          0.47613       -1.17766       -2.15938
Cl         0.65753       -1.07102        3.40766
Cl        -2.33652       -1.45886        2.33952
C         -0.70732       -1.55384       -4.36269
C          2.23786        0.16787       -4.10037
H          0.05287        4.08534       -2.97254
H         -1.34583        2.96056       -1.28624
H          1.41155       -3.44705        0.16070
H          0.46961       -4.99037       -1.52287
H          1.68037        2.78019       -4.27188
H         -0.49121       -4.08274       -3.59843
C         -4.21458       -2.70440       -2.52505
C         -3.57164       -3.11618       -1.36464
C         -2.76535       -2.19606       -0.70885
C         -2.59304       -0.93268       -1.21431
C         -3.21526       -0.55060       -2.37781
C         -4.05028       -1.43107       -3.05605
H         -4.87335       -3.39289       -3.02100
H         -2.27599       -2.45381        0.21246
H         -3.02611        0.43481       -2.76603
C         -4.11263        3.38002        1.61866
C         -3.23879        2.65570        2.41748
C         -2.44153        1.69863        1.80542
C         -2.53239        1.46092        0.45394
C         -3.42590        2.17108       -0.31119
C         -4.22721        3.15521        0.25376
H         -4.72333        4.13846        2.07301
H         -1.75158        1.12743        2.39653
H         -3.48836        1.95915       -1.36333
C          5.56236       -2.65045        1.65317
C          4.67220       -2.25048        2.64319
C          3.47291       -1.68047        2.24241
C          3.17870       -1.52522        0.91275
C          4.06625       -1.93151       -0.05367
C          5.28304       -2.50212        0.29990
H          6.50054       -3.08997        1.93529
H          2.75010       -1.36592        2.97265
H          3.79705       -1.80163       -1.08823
C          2.88107        3.60499       -0.22855
C          3.60389        2.59526       -0.85053
C          3.17284        1.28682       -0.67340
C          2.07127        1.00978        0.09836
C          1.37963        2.02210        0.72295
C          1.77542        3.34513        0.57314
H          3.20769        4.61904       -0.36154
H          3.70628        0.46835       -1.12350
H          0.53415        1.78266        1.34280
Pd        -0.40292       -0.72896        1.46043
C         -5.25540       -4.74739       -0.48009
C         -3.77215       -4.54287       -0.83599
C         -2.92382       -4.80442        0.42478
C         -3.35126       -5.55175       -1.92053
H         -5.42759       -5.74826       -0.08466
H         -5.57199       -4.02689        0.27383
H         -5.89299       -4.61906       -1.35406
H         -1.86281       -4.66382        0.21921
H         -3.20942       -4.13582        1.23656
H         -3.05950       -5.82654        0.77762
H         -3.95419       -5.44184       -2.82103
H         -2.30747       -5.40542       -2.19672
H         -3.46566       -6.57593       -1.56597
C         -4.70863       -2.07441       -5.40797
C         -4.83525       -1.00463       -4.30560
C         -4.31441        0.33145       -4.87240
C         -6.31540       -0.83520       -3.92095
H         -5.23434       -1.76373       -6.31077
H         -3.66486       -2.24118       -5.67071
H         -5.13319       -3.02683       -5.09421
H         -4.84548        0.59700       -5.78638
H         -4.46032        1.14589       -4.16365
H         -3.25315        0.26800       -5.11153
H         -6.73064       -1.76986       -3.54490
H         -6.42658       -0.08264       -3.14039
H         -6.90999       -0.52321       -4.77938
C         -2.18959        1.97222        4.63545
C         -3.19038        2.91049        3.93088
C         -4.58719        2.66216        4.52987
C         -2.76543        4.36666        4.19001
H         -2.17558        2.15749        5.70925
H         -2.45909        0.92696        4.48489
H         -1.17711        2.12308        4.26348
H         -4.58116        2.81183        5.60937
H         -5.32763        3.33817        4.10402
H         -4.91302        1.64113        4.33213
H         -1.78551        4.56380        3.75785
H         -3.47192        5.06971        3.75031
H         -2.71015        4.57280        5.25875
C         -4.75525        5.47126       -0.53400
C         -5.19776        3.99775       -0.58520
C         -6.62168        3.85946       -0.01535
C         -5.21895        3.54241       -2.05804
H         -4.76727        5.85165        0.48686
H         -3.74170        5.58175       -0.91953
H         -5.41533        6.09855       -1.13281
H         -6.67804        4.22689        1.00848
H         -7.33676        4.42629       -0.61135
H         -6.93524        2.81567       -0.01450
H         -5.52581        2.49986       -2.14021
H         -5.92214        4.14007       -2.63788
H         -4.23715        3.65244       -2.51835
C          6.33629       -3.06259        4.39132
C          4.96116       -2.41422        4.14203
C          3.87659       -3.30860        4.77149
C          4.94368       -1.02915        4.81521
H          6.38863       -4.05537        3.94476
H          7.13854       -2.45288        3.97606
H          6.52430       -3.17143        5.45941
H          4.06319       -3.45904        5.83457
H          2.88733       -2.86456        4.66688
H          3.85662       -4.28596        4.28990
H          5.68742       -0.37256        4.36417
H          3.96993       -0.55162        4.71244
H          5.16434       -1.10960        5.87942
C          7.61539       -2.16004       -0.55390
C          6.30834       -2.94960       -0.75147
C          5.79926       -2.69766       -2.18496
C          6.57978       -4.45634       -0.58883
H          8.35783       -2.44133       -1.30055
H          7.43522       -1.08896       -0.64385
H          8.04526       -2.34523        0.42977
H          5.61039       -1.63777       -2.35433
H          6.53616       -3.02184       -2.91964
H          4.87832       -3.24807       -2.37689
H          7.29031       -4.80771       -1.33684
H          6.99253       -4.68113        0.39391
H          5.65856       -5.02732       -0.70354
C          4.48778        3.82456       -2.85249
C          4.86692        2.93674       -1.65471
C          5.56464        1.66741       -2.18297
C          5.85899        3.68747       -0.74634
H          4.00524        4.74511       -2.52607
H          5.37024        4.09592       -3.43166
H          3.79965        3.30204       -3.51495
H          5.86127        1.01420       -1.36250
H          4.91123        1.10745       -2.85063
H          6.46414        1.92409       -2.74230
H          6.11468        3.08394        0.12443
H          6.78085        3.91616       -1.28088
H          5.43954        4.62771       -0.39068
C         -0.42209        4.53406        0.86215
C          1.03756        4.45491        1.33902
C          1.69229        5.83285        1.12164
C          1.07539        4.13312        2.84468
H         -0.46744        4.78347       -0.19727
H         -0.93336        3.58537        1.00987
H         -0.97310        5.29863        1.40926
H          2.72952        5.83160        1.45624
H          1.66654        6.11829        0.07013
H          1.16518        6.60352        1.68405
H          0.59664        4.92096        3.42552
H          0.56243        3.19761        3.06175
H          2.10415        4.03742        3.19127
H         -0.08736       -1.78718       -5.22945
H          3.08166        0.79918       -4.38216
H         -0.85742       -0.47408       -4.33399
H         -1.68251       -2.01713       -4.51440
H          1.79786       -0.22700       -5.01681
H          2.63076       -0.67175       -3.52466
