105
-153.06049891
Cl         0.29342        3.48860        1.80018
Pd        -0.16152        1.94274        0.22938
P         -0.71739        0.23784       -1.32089
N          0.15511       -1.17101       -1.95028
C          0.24791       -2.49566       -1.53406
C         -0.08920       -2.96623       -0.23489
C          0.22508       -4.29770        0.11786
C          0.08538       -4.74060        1.55657
C         -0.06580       -6.26008        1.71367
C          1.05337       -6.98597        0.96132
C          1.03241       -6.63133       -0.53511
C          0.74322       -5.17874       -0.83474
C          0.99576       -4.71364       -2.11793
C          0.77493       -3.40331       -2.45239
H          1.01633       -3.05515       -3.44187
H          1.39300       -5.39566       -2.85075
H          1.98959       -6.90138       -0.99924
H          2.02188       -6.69964        1.39045
H         -0.07970       -6.54825        2.77437
H          0.97304       -4.40178        2.10425
C         -0.68430       -2.08824        0.80867
C          0.13173       -1.09203        1.40602
C         -0.33588       -0.40598        2.52758
C         -1.58703       -0.66262        3.02495
C         -2.42463       -1.60169        2.43000
C         -3.78523       -1.82638        3.04773
C         -4.71616       -2.76132        2.25478
C         -3.93606       -3.90451        1.59796
C         -2.86353       -3.34273        0.65515
C         -1.97441       -2.32078        1.31888
H         -2.25881       -4.15475        0.23517
H         -4.61197       -4.58737        1.06396
H         -5.23317       -2.18723        1.47662
H         -4.26641       -0.85052        3.19138
H         -1.94218       -0.12051        3.88492
H          0.28396        0.34973        2.97422
N          1.28881       -0.71616        0.72982
P          1.81533        0.90849        0.97777
C          2.89822        1.42506       -0.34759
C          3.40068        0.49489       -1.22576
C          4.15446        0.91316       -2.30729
C          4.40650        2.26338       -2.51279
C          3.87869        3.18668       -1.61953
C          3.12501        2.76722       -0.53840
H          2.67995        3.47766        0.14078
H          4.04994        4.23683       -1.78325
C          5.18455        2.71582       -3.69896
H          4.54394        0.19195       -3.00536
H          3.19113       -0.55118       -1.07184
C          2.65356        0.96633        2.56254
C          2.50372        2.02071        3.43039
C          3.16997        2.01836        4.64059
C          3.98716        0.95300        4.99401
C          4.13197       -0.10154        4.10228
C          3.46308       -0.09510        2.89059
H          3.55987       -0.91697        2.19811
H          4.77094       -0.92812        4.36210
C          4.72521        0.96001        6.28749
H          3.05812        2.84566        5.32048
H          1.85624        2.83650        3.15940
H          1.14128       -0.82408       -0.27294
H          0.37737       -0.97626       -2.91874
C         -0.61279        1.40086       -2.69031
C         -1.72666        1.81769       -3.37875
C         -1.59407        2.72352       -4.41482
C         -0.34419        3.21171       -4.77228
C          0.76754        2.78335       -4.06010
C          0.63158        1.87716       -3.02470
H          1.49211        1.55139       -2.46430
H          1.73978        3.16915       -4.31448
C         -0.20486        4.21282       -5.86565
H         -2.46474        3.06353       -4.94909
H         -2.69714        1.44532       -3.09544
C         -2.44432       -0.21034       -1.15685
C         -2.96305       -1.08207       -2.08439
C         -4.30405       -1.42074       -2.03758
C         -5.13063       -0.89129       -1.05645
C         -4.58818       -0.00937       -0.13086
C         -3.24940        0.33083       -0.18299
H         -2.83288        1.02405        0.52899
H         -5.22118        0.41416        0.62996
C         -6.57141       -1.26464       -1.00937
H         -4.71591       -2.10339       -2.76106
H         -2.31354       -1.49544       -2.83996
Cl        -1.92148        3.16104       -0.45402
H          0.27919       -7.24326       -1.04583
H         -1.03738       -6.57133        1.30969
H          0.97776       -8.07287        1.10686
H         -0.75572       -4.22768        2.03488
H         -3.45506       -4.51111        2.37546
H         -3.34639       -2.87282       -0.20732
H         -3.63856       -2.22874        4.05730
H         -5.51246       -3.15726        2.90065
H          5.70376        3.65341       -3.49542
H          5.93539        1.97682       -3.98225
H          4.52786        2.87376       -4.55564
H          5.69875        1.43908        6.17518
H          4.16994        1.50161        7.05457
H          4.88936       -0.05468        6.65290
H         -0.96759        4.06765       -6.63195
H         -0.30706        5.22672       -5.47652
H          0.76967        4.13462       -6.34968
H         -7.09277       -0.91093       -1.89989
H         -6.69061       -2.34786       -0.95679
H         -7.06703       -0.83273       -0.13888
