171
-217.84228255
P         -1.65399        0.35019       -0.40713
P          1.65928       -0.31824       -0.38259
C         -0.96467        1.36085       -1.71684
C          0.97823       -1.27573       -1.73379
C         -0.09927        0.79966       -2.64935
C          0.51698        1.64809       -3.58921
C          0.20787        2.99831       -3.59184
C         -0.68207        3.52680       -2.68129
C         -1.26031        2.70237       -1.73691
C          1.26783       -2.61666       -1.79721
C          0.72828       -3.39493       -2.80211
C         -0.11896       -2.82236       -3.72685
C         -0.42243       -1.47155       -3.67854
C          0.15531       -0.66952       -2.67614
Cl         1.58376        0.55440        2.73812
Cl        -1.48909       -0.43305        2.84759
C         -1.32918       -0.88548       -4.70256
C          1.48777        1.12281       -4.58687
H         -0.91866        4.57818       -2.69911
H         -1.94905        3.10789       -1.01379
H          1.92194       -3.05569       -1.06100
H          0.96624       -4.44449       -2.86029
H          0.67485        3.63859       -4.32120
H         -0.55308       -3.42783       -4.50456
C         -3.92921       -3.31447       -1.75994
C         -2.89663       -3.46379       -0.84096
C         -2.18751       -2.32894       -0.46966
C         -2.50963       -1.10444       -0.99812
C         -3.53668       -0.97038       -1.89975
C         -4.27265       -2.07955       -2.29957
H         -4.48999       -4.18115       -2.05174
H         -1.39066       -2.39366        0.25206
H         -3.78001        0.01104       -2.27200
C         -4.31603        2.63439        2.47275
C         -3.01711        3.08094        2.26255
C         -2.23731        2.39535        1.34149
C         -2.73551        1.30283        0.67528
C         -4.01714        0.86740        0.90533
C         -4.83818        1.53149        1.80833
H         -4.93827        3.14343        3.18444
H         -1.21948        2.69930        1.16304
H         -4.36303       -0.01135        0.39072
C          4.16000       -2.78993        2.48391
C          4.77126       -1.75118        1.79404
C          3.99753       -1.02457        0.89743
C          2.67623       -1.34165        0.69852
C          2.08947       -2.37415        1.38964
C          2.82186       -3.11593        2.30785
H          4.73854       -3.34889        3.19626
H          4.41338       -0.18778        0.36538
H          1.04435       -2.57615        1.22923
C          3.98497        3.28635       -1.80743
C          2.90383        3.47785       -0.95565
C          2.20431        2.35561       -0.52989
C          2.57097        1.10635       -0.96287
C          3.63481        0.93330       -1.81398
C          4.37431        2.02662       -2.24856
H          4.54208        4.14834       -2.12244
H          1.36869        2.44385        0.14277
H          3.89514       -0.06338       -2.13000
Pd        -0.00839        0.07337        1.22343
C         -3.48556       -5.93766       -0.67029
C         -2.54139       -4.81366       -0.20217
C         -2.65447       -4.69178        1.32942
C         -1.10252       -5.19239       -0.59200
H         -3.22348       -6.88380       -0.19683
H         -4.52024       -5.71412       -0.41085
H         -3.42158       -6.08104       -1.74877
H         -3.66857       -4.41732        1.61902
H         -2.40727       -5.63497        1.81623
H         -1.98178       -3.92908        1.71834
H         -1.02080       -5.31825       -1.67111
H         -0.39701       -4.41889       -0.29278
H         -0.80038       -6.12682       -0.11947
C         -6.51671       -1.00170       -2.56811
C         -5.46685       -1.89761       -3.24980
C         -6.12926       -3.24417       -3.60090
C         -4.99785       -1.23633       -4.55804
H         -6.10500       -0.02098       -2.33218
H         -7.38279       -0.85410       -3.21300
H         -6.86198       -1.45548       -1.63952
H         -6.96211       -3.09707       -4.28848
H         -5.41905       -3.91666       -4.08178
H         -6.52228       -3.73358       -2.70997
H         -4.27830       -1.87189       -5.07217
H         -5.83765       -1.07110       -5.23284
H         -4.52784       -0.27173       -4.37097
C         -2.12534        5.40499        2.01093
C         -2.41448        4.27533        3.01465
C         -1.10488        3.83669        3.69989
C         -3.37102        4.81031        4.09747
H         -3.04465        5.73578        1.52802
H         -1.67473        6.26436        2.50711
H         -1.44327        5.07085        1.23099
H         -1.28746        3.00527        4.38032
H         -0.36160        3.51242        2.97325
H         -0.67105        4.65519        4.27379
H         -4.29893        5.17539        3.65781
H         -3.61306        4.03393        4.82306
H         -2.91625        5.63964        4.63911
C         -6.66586       -0.14376        1.23926
C         -6.26315        1.05383        2.12127
C         -7.25792        2.20091        1.86380
C         -6.33560        0.62123        3.59679
H         -6.01023       -0.99761        1.40939
H         -7.68470       -0.46237        1.45910
H         -6.62264        0.12212        0.18390
H         -7.05549        3.05562        2.50795
H         -7.19579        2.53859        0.82941
H         -8.28176        1.87838        2.05246
H         -5.62125       -0.17695        3.79789
H         -6.10474        1.45127        4.26350
H         -7.33115        0.25634        3.84878
C          6.37027       -0.95135        3.54630
C          6.23906       -1.40525        2.08124
C          6.74319       -0.27063        1.16958
C          7.11724       -2.64706        1.83883
H          6.06831       -1.74143        4.23290
H          7.39921       -0.67915        3.78067
H          5.73849       -0.08402        3.73712
H          6.17314        0.64493        1.32637
H          7.78998       -0.04531        1.37305
H          6.66359       -0.55482        0.12128
H          8.16946       -2.41913        2.00841
H          6.84374       -3.46454        2.50468
H          7.00950       -2.99974        0.81324
C          0.68732       -4.38821        2.85075
C          2.18911       -4.22983        3.15343
C          2.34469       -3.88263        4.64584
C          2.89455       -5.56336        2.84918
H          0.14753       -3.46378        3.05581
H          0.52846       -4.66142        1.80889
H          0.24729       -5.17176        3.46739
H          1.87549       -2.92389        4.86630
H          1.87673       -4.64051        5.27379
H          3.39368       -3.81516        4.93127
H          3.95500       -5.51464        3.09390
H          2.45560       -6.37738        3.42582
H          2.80606       -5.81238        1.79178
C          2.29508        5.79440       -1.71194
C          2.53765        4.89269       -0.48722
C          3.69393        5.45961        0.35550
C          1.25952        4.88884        0.37276
H          3.19197        5.88664       -2.32299
H          1.50383        5.38607       -2.33936
H          1.99813        6.79706       -1.40488
H          3.88696        4.82396        1.21952
H          4.61297        5.52096       -0.22636
H          3.45913        6.46040        0.71757
H          0.41887        4.47686       -0.18430
H          1.39763        4.29921        1.27864
H          0.99373        5.90125        0.67644
C          6.29293        3.13800       -3.50395
C          5.60407        1.80736       -3.14404
C          5.18239        1.11137       -4.45072
C          6.61744        0.92183       -2.39691
H          6.64081        3.65462       -2.60958
H          7.15973        2.96415       -4.14150
H          5.61386        3.79772       -4.04387
H          6.04957        0.90447       -5.07770
H          4.68132        0.16451       -4.25319
H          4.50328        1.74244       -5.02210
H          7.51721        0.76894       -2.99258
H          6.91106        1.38548       -1.45541
H          6.19496       -0.05750       -2.17551
H         -0.76897       -0.55425       -5.57753
H          2.30713        1.82756       -4.73016
H         -1.87370       -0.02832       -4.30396
H         -2.06237       -1.61955       -5.03717
H          1.00994        0.96667       -5.55473
H          1.91876        0.17454       -4.26275
