64
-97.21040613
Cl        -1.56124       -1.63328       -2.51897
Cl         1.59366       -1.58335       -2.86840
P          1.92439       -0.60655        0.25977
C          2.16959       -2.26638        1.04319
C          3.69267       -0.17596       -0.11201
P         -1.25755       -0.12328        0.42485
C          1.27140        0.63341        1.43207
C         -0.15420        0.87684        1.49245
C         -0.37508        2.01482        2.37466
C          0.91572        2.46089        2.87027
C          1.93649        1.61605        2.27467
H         -1.33969        2.46370        2.61644
H          1.08901        3.29257        3.55659
Pd         0.17232       -1.00122       -1.23967
H          3.01426        1.69622        2.43144
C         -4.85845        2.37776       -0.81927
C         -4.49199        2.29756        0.50966
C         -3.40787        1.52206        0.88045
C         -2.69323        0.83858       -0.07712
C         -3.07447        0.89636       -1.39840
C         -4.15381        1.67290       -1.77460
H         -5.70195        2.98266       -1.10977
H         -5.04955        2.83680        1.25781
H         -3.12540        1.43379        1.91681
H         -2.54286        0.30768       -2.12649
H         -4.44886        1.72013       -2.81006
C         -2.69000       -3.85061        2.59053
C         -2.33253       -2.72866        3.31308
C         -1.90219       -1.59180        2.65240
C         -1.83065       -1.58892        1.27857
C         -2.19100       -2.70110        0.55491
C         -2.62163       -3.83889        1.21097
H         -3.02509       -4.73681        3.10445
H         -2.38763       -2.73794        4.38928
H         -1.61618       -0.70782        3.20008
H         -2.13214       -2.66805       -0.52110
H         -2.90288       -4.71268        0.64647
C          3.99649       -0.20366       -1.59348
H          3.86225        0.83017        0.29350
C          4.48050       -1.23349        0.68621
H          4.72840       -0.84242        1.68385
C          3.67011       -2.54871        0.83592
H          5.44494       -1.42554        0.19384
C          1.75550       -2.22501        2.49810
H          1.54958       -2.98118        0.48486
H          4.05217       -3.14701        1.67564
H          3.81415       -3.16923       -0.06055
H          2.34605       -1.48642        3.04385
H          0.70514       -1.94702        2.60422
H          1.89930       -3.19258        2.98475
H          5.04045        0.04779       -1.79309
H          3.81444       -1.19901       -2.00128
H          3.37096        0.49748       -2.14812
Fe         0.82993        2.46921        0.80356
C          2.11171        3.14859       -0.64002
C          1.40891        4.25945       -0.02074
C         -0.01580        4.04927       -0.21314
C         -0.18974        2.81468       -0.95554
C          1.12281        2.25923       -1.21932
H          3.19598        3.02851       -0.69737
H          1.87060        5.10972        0.48645
H         -0.81576        4.71173        0.12518
H         -1.14194        2.39094       -1.27526
H          1.32832        1.36201       -1.80572
