87
-129.18258698
P         -1.55581       -0.27647       -0.42422
P          1.73422        0.30418        0.25304
C         -1.09862        0.97076       -1.63239
C          1.52971       -0.80152       -1.16692
C          0.01058        0.74076       -2.43630
C          0.37187        1.71234       -3.39067
C         -0.39934        2.85737       -3.50872
C         -1.50048        3.06284       -2.70302
C         -1.84833        2.11380       -1.76191
C          2.15121       -2.01854       -1.01051
C          2.04013       -2.99219       -1.98429
C          1.28834       -2.74355       -3.11140
C          0.63572       -1.53477       -3.28194
C          0.76124       -0.53499       -2.29825
Cl         0.95088       -0.24226        3.35590
Cl        -1.65491       -1.86450        2.39330
H         -2.08530        3.96232       -2.80426
H         -2.70927        2.26116       -1.13129
H          2.72061       -2.20832       -0.11269
H          2.53149       -3.94291       -1.85776
H         -0.12277        3.59820       -4.23958
H          1.18877       -3.50191       -3.86943
C         -2.46348       -4.18478       -2.55324
C         -1.66007       -4.20323       -1.42133
C         -1.40432       -3.00261       -0.77075
C         -1.93812       -1.82607       -1.24159
C         -2.74384       -1.81700       -2.35590
C         -3.00965       -3.00314       -3.01483
H         -2.65772       -5.10765       -3.07270
C         -1.04337       -5.46811       -0.93798
H         -0.78373       -2.99208        0.10903
H         -3.14789       -0.88185       -2.71102
H         -3.63449       -3.00296       -3.89286
C         -5.18278        1.09590        1.96948
C         -5.25331       -0.05449        1.20948
C         -4.15477       -0.46554        0.47885
C         -2.99817        0.27785        0.50707
C         -2.92558        1.42321        1.26534
C         -4.01627        1.84701        2.01437
H         -6.03720        1.41805        2.53995
H         -6.16141       -0.63448        1.18933
H         -4.19207       -1.36877       -0.10789
H         -2.01567        1.99721        1.27517
C         -3.93403        3.09063        2.82760
C          6.08846       -0.03406        1.54777
C          5.76537        0.14683        0.21740
C          4.43977        0.24815       -0.16317
C          3.44862        0.16309        0.78751
C          3.77150       -0.01601        2.11109
C          5.09633       -0.11057        2.51498
H          7.11946       -0.11938        1.84635
H          6.54462        0.20679       -0.52463
H          4.17216        0.38184       -1.19960
H          2.98369       -0.08945        2.83884
C          5.43823       -0.33287        3.94644
C          0.82196        4.72105       -0.32160
C          1.71478        4.09238       -1.16677
C          2.00182        2.75158       -0.99221
C          1.38599        2.05047        0.01714
C          0.52607        2.68364        0.88537
C          0.22551        4.03077        0.72433
H          0.58614        5.76197       -0.46357
H          2.18020        4.64270       -1.96795
H          2.69177        2.24436       -1.64682
H          0.11753        2.13731        1.71835
C         -0.73638        4.71166        1.63232
Pd        -0.13539       -0.53015        1.41726
C          1.56212        1.53565       -4.26752
C         -0.19236       -1.32720       -4.50282
H          1.26076        1.31002       -5.29119
H          2.16750        2.44301       -4.28876
H          2.19960        0.72320       -3.91669
H          0.43597       -1.10144       -5.36518
H         -0.77213       -2.22149       -4.73556
H         -0.89748       -0.50555       -4.37351
H         -1.65610       -6.33169       -1.20026
H         -0.05506       -5.60880       -1.37799
H         -0.93030       -5.45889        0.14709
H         -3.99846        3.97496        2.19221
H         -4.74364        3.14194        3.55688
H         -2.99244        3.13465        3.37665
H          6.39133        0.13300        4.20075
H          4.67659        0.09103        4.60253
H          5.51429       -1.39887        4.16507
H         -0.43236        5.74141        1.82526
H         -1.73419        4.73204        1.19203
H         -0.80011        4.20027        2.59372
