105
-153.06433159
Cl         3.11990        0.81693       -1.57691
Pd         0.89934        0.92197       -1.21561
P         -1.46054        0.93145       -0.95758
N         -1.47535       -0.51996       -1.97111
C         -0.49347       -1.48740       -1.71063
C         -0.30773       -2.04404       -0.41507
C          0.69546       -3.00649       -0.20183
C          0.73110       -3.72071        1.13150
C          1.89335       -4.71200        1.32480
C          2.25545       -5.43037        0.02133
C          2.61717       -4.40851       -1.06545
C          1.54514       -3.36804       -1.24856
C          1.36696       -2.79930       -2.50391
C          0.36113       -1.89800       -2.73957
H          0.24201       -1.46317       -3.71628
H          2.02763       -3.08523       -3.30463
H          3.55612       -3.90564       -0.80719
H          3.07597       -6.14469        0.17956
H          2.77481       -4.17286        1.68693
H          0.74064       -2.96759        1.92823
C         -1.32952       -1.83075        0.63728
C         -1.09599       -0.98841        1.75083
C         -2.00799       -1.01438        2.80594
C         -3.12763       -1.80317        2.76339
C         -3.40141       -2.59943        1.65994
C         -4.67065       -3.41460        1.66523
C         -4.71016       -4.51395        0.59272
C         -4.19653       -3.98303       -0.74867
C         -2.75112       -3.47767       -0.62113
C         -2.50356       -2.61097        0.59054
H         -2.06191       -4.32963       -0.58864
H         -4.84052       -3.15971       -1.08266
H         -5.72517       -4.92266        0.48736
H         -5.52016       -2.73496        1.52829
H         -3.82470       -1.79178        3.58424
H         -1.83352       -0.37859        3.65664
N         -0.05591       -0.07212        1.84140
P          1.43817        0.30495        0.97983
C          2.67848       -0.90341        1.45097
C          2.64179       -1.39226        2.73581
C          3.62467       -2.26329        3.17249
C          4.65661       -2.64465        2.32518
C          4.67525       -2.14332        1.03111
C          3.69453       -1.26996        0.60202
H          3.73056       -0.84934       -0.38760
H          5.46870       -2.43492        0.36434
C          5.69654       -3.60977        2.77695
H          3.59271       -2.65497        4.17477
H          1.84229       -1.09067        3.39354
C          2.04359        1.86133        1.67122
C          2.66288        2.78370        0.85960
C          3.10926        3.98341        1.37949
C          2.95863        4.26613        2.72915
C          2.34812        3.32060        3.54075
C          1.89943        2.12221        3.01523
H          1.45582        1.38582        3.66398
H          2.22695        3.52863        4.59023
C          3.41518        5.56861        3.28873
H          3.58482        4.70639        0.73885
H          2.82716        2.54977       -0.17802
H         -0.01149        0.44299        2.70948
H         -1.49470       -0.17692       -2.92298
C         -1.65840        2.42161       -1.93968
C         -2.47391        2.41786       -3.04512
C         -2.62233        3.57383       -3.79014
C         -1.96372        4.74030       -3.42428
C         -1.14664        4.72238       -2.30182
C         -0.99984        3.56645       -1.55676
H         -0.36814        3.55026       -0.68203
H         -0.62222        5.61841       -2.01686
C         -2.09688        5.97572       -4.24490
H         -3.24985        3.57546       -4.66497
H         -2.99273        1.51403       -3.32118
C         -2.82345        0.96077        0.20022
C         -2.76231        1.74917        1.32429
C         -3.84277        1.78822        2.18735
C         -4.98630        1.04460        1.92369
C         -5.03692        0.28097        0.76507
C         -3.95471        0.24001       -0.09524
H         -3.97822       -0.35866       -0.99199
H         -5.92539       -0.28511        0.54357
C         -6.15154        1.09005        2.84922
H         -3.80213        2.39560        3.07527
H         -1.86890        2.31931        1.52523
Cl         0.59007        1.30022       -3.41740
H          2.80496       -4.91343       -2.02154
H          1.65540       -5.43915        2.11377
H          1.39954       -6.02979       -0.31361
H         -0.21959       -4.25295        1.25507
H         -4.27465       -4.75342       -1.52878
H         -2.47686       -2.91272       -1.52028
H         -4.80509       -3.85283        2.66250
H         -4.08478       -5.35725        0.91196
H          5.81678       -3.58216        3.86081
H          5.42858       -4.62871        2.49388
H          6.66516       -3.38024        2.33070
H          4.27465        5.95394        2.73836
H          2.61980        6.31324        3.23509
H          3.71092        5.46640        4.33380
H         -3.07291        6.02341       -4.72980
H         -1.98893        6.87045       -3.63018
H         -1.33255        6.00726       -5.02251
H         -5.83406        1.29582        3.87244
H         -6.85359        1.86973        2.55072
H         -6.68588        0.13887        2.85447
