87
-129.18030788
P         -1.68108       -0.37902        0.15197
P          1.57473        0.32245       -0.19880
C         -1.43175        0.88041       -1.12640
C          1.27706       -0.76349       -1.59825
C         -0.56513        0.78352       -2.21301
C         -0.39314        1.90744       -3.04393
C         -1.11239        3.06164       -2.78602
C         -1.97339        3.13729       -1.71353
C         -2.12088        2.04546       -0.87976
C          2.08628       -1.84826       -1.83119
C          1.86016       -2.65285       -2.93071
C          0.82046       -2.36290       -3.79033
C         -0.00867       -1.27490       -3.57069
C          0.23315       -0.44605       -2.45690
Cl         1.40379        1.82358        2.66907
Cl        -1.20433        0.09778        3.39432
H         -2.51707        4.04657       -1.51629
H         -2.76918        2.10168       -0.01769
H          2.90251       -2.05914       -1.16073
H          2.49268       -3.50574       -3.11463
H         -0.97806        3.91489       -3.42913
H          0.64076       -2.98978       -4.64717
C         -0.38281       -4.68077       -0.54819
C         -1.15122       -4.04792       -1.51511
C         -1.54462       -2.73239       -1.29543
C         -1.17029       -2.07618       -0.14681
C         -0.44607       -2.72675        0.82551
C         -0.03807       -4.03053        0.61986
H         -0.06699       -5.69666       -0.71430
C         -1.53157       -4.76509       -2.76254
H         -2.13782       -2.21658       -2.03113
H         -0.23741       -2.22355        1.75647
H          0.53499       -4.54268        1.37545
C         -6.13761       -0.44268        1.07488
C         -5.69112       -0.56443       -0.22637
C         -4.33466       -0.54604       -0.49502
C         -3.43800       -0.40231        0.53834
C         -3.88236       -0.28163        1.83289
C         -5.23953       -0.30706        2.12425
H         -7.19337       -0.45055        1.28630
H         -6.39823       -0.67130       -1.03258
H         -3.97016       -0.63341       -1.50661
H         -3.16539       -0.16170        2.62520
C         -5.71672       -0.14859        3.52514
C          4.89791       -1.38785        2.40968
C          5.00902       -0.10500        1.91072
C          4.00814        0.41291        1.11058
C          2.90528       -0.35350        0.81548
C          2.79096       -1.62885        1.31671
C          3.78982       -2.17030        2.11523
H          5.67318       -1.79069        3.03890
H          5.87181        0.49496        2.14953
H          4.07593        1.41718        0.72532
H          1.91854       -2.21383        1.08519
C          3.64453       -3.54489        2.66683
C          2.75165        4.39793       -1.82705
C          3.39790        3.26089       -2.27103
C          3.04432        2.02423       -1.76362
C          2.05626        1.93889       -0.81103
C          1.41612        3.06976       -0.36118
C          1.74636        4.31822       -0.87315
H          3.02465        5.36198       -2.22114
H          4.17299        3.33556       -3.01602
H          3.52596        1.12337       -2.11062
H          0.64910        2.98602        0.38980
C          1.05529        5.54022       -0.38013
Pd         0.01942        0.45193        1.55211
C          0.56199        1.89329       -4.18719
C         -1.12928       -1.00227       -4.51221
H          0.03297        1.79168       -5.13547
H          1.13846        2.81885       -4.22189
H          1.27264        1.07028       -4.10556
H         -1.67531       -1.91780       -4.74384
H         -1.84168       -0.29288       -4.08925
H         -0.75712       -0.58841       -5.45016
H         -2.19060       -4.15831       -3.38493
H         -0.64791       -5.01204       -3.35263
H         -2.05393       -5.69479       -2.53251
H         -5.89687        0.90220        3.75605
H         -6.64680       -0.69475        3.68874
H         -4.98063       -0.52724        4.23582
H          3.27639       -4.23369        1.90496
H          4.59826       -3.93038        3.02980
H          2.93889       -3.55460        3.49877
H          1.54496        5.92708        0.51454
H          1.05841        6.32769       -1.13509
H          0.01526        5.32665       -0.12877
