111
-148.55941758
P         -2.48084        2.29797        0.27738
P         -0.05408        0.27652        0.45877
C         -1.69571        1.98692        1.87714
C         -0.64321        1.10197        1.95046
C         -2.84028        4.09481        0.02765
C         -1.87560        4.70779       -0.96420
C         -2.15216        2.61417        3.01847
H         -2.98403        3.29663        2.95457
C         -1.54501        2.35478        4.23512
H         -1.89920        2.84440        5.12756
C         -0.48845        1.46716        4.30701
H         -0.01609        1.26437        5.25408
C         -0.03804        0.83625        3.16111
H          0.78430        0.13929        3.20093
Pd        -1.19841        1.24202       -1.32077
Cl        -2.64470        1.99522       -2.85809
Cl         0.32239        0.35021       -2.70434
C         -4.31162        4.08921       -0.42774
C         -4.19144        1.60056        0.16960
H         -0.84201        4.61558       -0.62161
H         -1.94522        4.20709       -1.93145
H         -2.08741        5.76746       -1.12509
H         -4.33955        4.06750       -1.52596
H         -4.80689        5.02845       -0.13793
H         -4.24071        1.06736       -0.78911
C         -5.08024        2.85814        0.13184
C         -4.47509        0.66356        1.32464
H         -2.74397        4.57364        1.01052
H         -5.42782        3.07657        1.15089
H         -5.99123        2.66481       -0.45468
H         -4.41192        1.19287        2.27700
H         -5.47568        0.23078        1.25266
H         -3.75109       -0.15380        1.36002
C         -1.13749       -4.14807        0.46896
C         -0.05058       -3.68416        1.25722
C          0.26059       -2.33478        1.21340
C         -0.51096       -1.45376        0.50087
C         -1.64715       -1.87612       -0.14000
C         -2.00842       -3.21286       -0.15024
O         -1.30155       -5.53713        0.23226
C          0.78792       -4.58610        2.17920
H          1.12499       -1.95735        1.73373
H         -2.25065       -1.15027       -0.65658
C         -3.32548       -3.59816       -0.84499
C          4.41773        0.87444       -0.18018
C          3.76664       -0.25160       -0.74499
C          2.40672       -0.39853       -0.52936
C          1.71223        0.48657        0.25207
C          2.35447        1.52489        0.87476
C          3.71709        1.71900        0.71896
O          5.75664        1.17728       -0.54464
C          4.49539       -1.27467       -1.62985
H          1.85798       -1.19768       -0.99733
H          1.77056        2.19114        1.48564
C          4.40316        2.84746        1.50524
C          2.19640       -4.75695        1.58708
C          0.90095       -3.92531        3.57070
C          0.14871       -5.96972        2.38962
C         -3.79104       -5.01589       -0.47031
C         -4.44457       -2.62665       -0.40975
C         -3.14366       -3.50100       -2.36884
C         -0.56185       -5.99197       -0.88869
H          2.81043       -5.39647        2.22066
H          2.15500       -5.20552        0.59612
H          2.69880       -3.79464        1.49770
H          1.43818       -2.97939        3.52705
H         -0.08801       -3.73159        3.98514
H          1.43636       -4.57174        4.26563
H          0.70448       -6.55181        3.12439
H         -0.87771       -5.86943        2.74071
H          0.13012       -6.54056        1.46435
H         -3.09783       -5.76846       -0.83863
H         -3.85859       -5.12471        0.61157
H         -4.77017       -5.23354       -0.89631
H         -4.53539       -2.60606        0.67586
H         -4.25526       -1.61185       -0.75487
H         -5.40613       -2.93246       -0.82121
H         -2.37417       -4.18674       -2.71785
H         -4.07045       -3.74358       -2.88798
H         -2.84837       -2.49392       -2.66199
H         -0.89090       -5.47403       -1.78803
H          0.49932       -5.79733       -0.74085
H         -0.71871       -7.06370       -1.01240
C          5.86835        2.05061       -1.66156
C          5.95846       -1.45217       -1.18568
C          3.82371       -2.66317       -1.52986
C          4.43574       -0.80795       -3.09235
C          3.69175        3.07613        2.85891
C          5.86682        2.49279        1.82490
C          4.33836        4.14835        0.69093
H          6.52414       -0.53152       -1.30446
H          6.00828       -1.74183       -0.13658
H          6.45590       -2.22250       -1.77444
H          4.40800       -3.41464       -2.06039
H          3.74071       -2.97753       -0.49050
H          2.82789       -2.66408       -1.97047
H          4.92989       -1.52144       -3.75118
H          3.40164       -0.70407       -3.42029
H          4.91998        0.15734       -3.21813
H          2.69254        3.48820        2.72631
H          3.60656        2.14245        3.41435
H          4.24898        3.78199        3.47441
H          6.33199        3.26396        2.43841
H          5.92327        1.54887        2.36602
H          6.45861        2.39284        0.91860
H          4.84530        4.04119       -0.26501
H          4.80766        4.97053        1.23059
H          3.30390        4.42452        0.48788
H          6.40374        2.95362       -1.36884
H          6.43515        1.56084       -2.45320
H          4.87909        2.31852       -2.03488
