105
-153.06862246
Cl         0.27043        2.98366        2.63598
Pd        -0.21314        1.73187        0.83042
P         -0.71740        0.53607       -1.15428
N          0.41370       -0.74108       -1.59207
C          0.55675       -2.12035       -1.38831
C          0.03928       -2.82918       -0.27155
C          0.39226       -4.18216       -0.08361
C          0.04179       -4.87205        1.21380
C         -0.02358       -6.39993        1.08356
C          1.26809       -6.93320        0.45544
C          1.50581       -6.31646       -0.93413
C          1.15831       -4.84971       -1.04302
C          1.62484       -4.14502       -2.14516
C          1.35433       -2.81052       -2.29995
H          1.75202       -2.27202       -3.14288
H          2.22421       -4.65964       -2.87717
H          2.55374       -6.45139       -1.23097
H          2.11434       -6.69175        1.11097
H         -0.21397       -6.87226        2.05768
H          0.79935       -4.60026        1.95877
C         -0.69521       -2.12057        0.80306
C          0.03199       -1.22664        1.62544
C         -0.62546       -0.59487        2.68046
C         -1.95169       -0.84193        2.92564
C         -2.67938       -1.73291        2.14364
C         -4.12185       -1.98954        2.51772
C         -4.88644       -2.95516        1.59137
C         -3.96272       -4.02458        0.99832
C         -2.81714       -3.35710        0.22654
C         -2.04949       -2.37830        1.07688
H         -2.14331       -4.10928       -0.19945
H         -4.52122       -4.71936        0.35520
H         -5.34652       -2.38896        0.77286
H         -4.64270       -1.02495        2.56748
H         -2.44604       -0.34406        3.74255
H         -0.07719        0.10184        3.28939
N          1.37768       -0.97052        1.34629
P          1.87053        0.70584        1.11866
C          2.68136        0.93707       -0.46013
C          2.34887        2.03007       -1.22522
C          2.83011        2.13426       -2.51649
C          3.64889        1.14783       -3.04714
C          3.98927        0.06202       -2.25194
C          3.51191       -0.04009       -0.95755
H          3.75451       -0.89598       -0.34797
H          4.61823       -0.71185       -2.65800
C          4.11115        1.23068       -4.46003
H          2.54912        2.97300       -3.13037
H          1.69106        2.78532       -0.82500
C          2.83261        1.35574        2.47494
C          2.86914        0.65415        3.65530
C          3.58533        1.15358        4.72858
C          4.27101        2.35639        4.61967
C          4.21224        3.05355        3.41985
C          3.49540        2.55247        2.34804
H          3.44205        3.09275        1.41614
H          4.72653        3.99529        3.33207
C          5.01739        2.91176        5.78244
H          3.61191        0.61307        5.65926
H          2.33756       -0.28118        3.72835
H          1.77324       -1.48654        0.57332
H          1.23596       -0.23971       -1.90720
C         -0.57980        1.72580       -2.49835
C         -0.13248        1.25917       -3.71271
C          0.02692        2.13128       -4.77485
C         -0.25839        3.48131       -4.62668
C         -0.73199        3.93101       -3.40184
C         -0.89161        3.05540       -2.34557
H         -1.26957        3.40312       -1.40042
H         -0.97663        4.97250       -3.28110
C         -0.09918        4.41893       -5.77236
H          0.38042        1.76790       -5.72462
H          0.10199        0.21275       -3.82394
C         -2.38157       -0.11635       -1.26976
C         -2.62068       -1.00227       -2.29429
C         -3.90182       -1.48051       -2.51056
C         -4.95033       -1.07871       -1.69482
C         -4.69168       -0.17448       -0.67302
C         -3.41368        0.30954       -0.46870
H         -3.22448        1.04780        0.29053
H         -5.50037        0.16031       -0.04616
C         -6.32474       -1.60194       -1.92859
H         -4.09313       -2.17442       -3.31115
H         -1.80063       -1.31478       -2.92181
Cl        -2.09705        2.91214        0.50921
H          0.91963       -6.86347       -1.68231
H         -0.87651       -6.67333        0.44976
H          1.24665       -8.03061        0.39717
H         -0.90058       -4.48265        1.61367
H         -3.54737       -4.63696        1.80832
H         -3.22541       -2.82189       -0.63452
H         -4.13958       -2.38021        3.54234
H         -5.72560       -3.42258        2.12536
H          4.23264        2.26834       -4.77400
H          5.07146        0.73006       -4.59095
H          3.39073        0.75914       -5.13000
H          4.37333        3.55474        6.38380
H          5.39368        2.11537        6.42602
H          5.87288        3.50398        5.45464
H          0.08841        5.43630       -5.42621
H          0.73901        4.12569       -6.40614
H         -0.99902        4.43353       -6.38878
H         -7.00985       -1.28946       -1.13934
H         -6.72110       -1.23940       -2.87800
H         -6.32582       -2.69260       -1.95716
