58
-89.86668825
P          1.68897        0.21879        0.76531
C          2.97607        1.43090        0.45510
C          4.25378        1.02101        0.15049
C          5.23708        1.96229       -0.09511
C          4.93148        3.30772       -0.03408
C          3.64742        3.71385        0.27182
C          2.66603        2.77000        0.51787
H          1.65626        3.07105        0.74936
H          4.47526       -0.03286        0.10090
C          2.22377       -1.42137        0.25918
C          2.41099       -1.64604       -1.08586
C          2.78488       -2.89939       -1.53299
C          2.97030       -3.92274       -0.62504
C          2.78633       -3.69369        0.72443
C          2.41211       -2.43817        1.16821
H          2.26248       -2.25376        2.21898
H          2.25181       -0.83428       -1.77809
C          1.33166        0.31360        2.56842
C          0.05301       -0.37435        3.01632
C         -1.21117        0.34961        2.57713
P         -1.67591       -0.04065        0.84639
C         -1.88409       -1.82311        0.74319
C         -3.00126       -2.41217        1.29068
C         -3.14649       -3.78746        1.24506
C         -2.16488       -4.56485        0.66239
C         -1.03749       -3.97124        0.13111
C         -0.89855       -2.59675        0.17603
H         -0.01102       -2.12767       -0.21076
H         -3.75217       -1.79472        1.75787
C         -3.19411        0.83140        0.43162
C         -4.20176        0.18957       -0.25173
C         -5.34976        0.87921       -0.59721
C         -5.47851        2.21210       -0.26106
C         -4.46070        2.85685        0.41326
C         -3.31314        2.16405        0.75630
H         -2.50404        2.66273        1.26573
H         -4.07916       -0.84409       -0.53131
Pd        -0.06876        0.60912       -0.70135
Cl         1.46001        1.36906       -2.16735
Cl        -1.76439        0.86454       -2.15415
H         -2.07149        0.05722        3.18442
H         -1.10045        1.43027        2.67811
H          0.03266       -1.40698        2.64287
H          0.05878       -0.46310        4.11415
H          2.20848       -0.09933        3.07275
H          1.29956        1.37389        2.82673
H          6.23817        1.64529       -0.33709
H          3.40782        4.76360        0.31467
H          2.92738       -3.07594       -2.58640
H          2.93080       -4.49348        1.43208
H         -4.02304       -4.25070        1.66736
H         -0.26268       -4.57547       -0.31135
H         -6.13818        0.37822       -1.13446
H         -4.55621        3.89987        0.66683
H          5.69592        4.04228       -0.22849
H          3.25977       -4.90197       -0.97007
H         -2.27612       -5.63635        0.62764
H         -6.37116        2.75192       -0.53220
