111
-148.55256943
P         -2.66195        2.08246        0.45022
P          0.09463        0.52040        0.44563
C         -1.76538        1.81530        2.00895
C         -0.54287        1.17994        1.99326
C         -3.68988        3.62181        0.56235
C         -3.42684        4.56411       -0.59098
C         -2.30329        2.23208        3.21057
H         -3.26991        2.70768        3.22664
C         -1.60801        2.02134        4.38893
H         -2.02848        2.34776        5.32612
C         -0.37873        1.39113        4.36659
H          0.16120        1.22489        5.28420
C          0.15353        0.96359        3.16368
H          1.10318        0.45274        3.12805
Pd        -1.11039        1.59844       -1.20664
Cl        -2.52825        2.49287       -2.69121
Cl         0.45779        1.01475       -2.70329
C         -5.13094        3.07115        0.60166
C         -3.98424        0.82041        0.15720
H         -3.99672        5.49087       -0.49095
H         -2.36769        4.82228       -0.66054
H         -3.71699        4.10348       -1.53597
H         -5.81247        3.79303        0.12837
H         -5.47071        2.98398        1.64416
H         -3.70037        0.26496       -0.74745
C         -5.23820        1.68330       -0.09085
C         -4.10444       -0.11873        1.33768
H         -3.42519        4.10946        1.50994
H         -6.13080        1.14354        0.25769
H         -5.38206        1.82807       -1.17178
H         -4.35918        0.43314        2.24441
H         -4.88104       -0.87015        1.17628
H         -3.16377       -0.64090        1.52439
C         -1.26438       -3.79244       -0.10540
C         -1.06525       -2.96008       -1.23626
C         -0.63529       -1.66280       -1.02368
C         -0.49860       -1.15858        0.24168
C         -0.79403       -1.92464        1.33805
C         -1.21228       -3.23733        1.19903
O         -1.47104       -5.18718       -0.27559
C         -1.28062       -3.43986       -2.67951
H         -0.37482       -1.02564       -1.85072
H         -0.67608       -1.48437        2.31234
C         -1.55449       -4.05117        2.45627
C          4.63737        0.51094        0.12666
C          3.92378       -0.71283        0.22247
C          2.54310       -0.65714        0.29982
C          1.88055        0.54107        0.36145
C          2.57101        1.72379        0.39282
C          3.95515        1.74250        0.32019
O          6.00823        0.50484       -0.23787
C          4.58474       -2.10140        0.25357
H          1.96341       -1.56445        0.30037
H          2.01249        2.64161        0.46680
C          4.66586        3.09903        0.46529
C          0.04470       -3.97959       -3.23799
C         -2.37073       -4.52434       -2.74961
C         -1.75448       -2.26892       -3.57211
C         -2.08329       -3.13060        3.57984
C         -2.65973       -5.08201        2.16390
C         -0.28777       -4.75978        2.95990
C         -0.26901       -5.94509       -0.33580
H         -0.07394       -4.31692       -4.26730
H          0.81209       -3.20590       -3.22259
H          0.40893       -4.81796       -2.64880
H         -2.56682       -4.81691       -3.78082
H         -2.07836       -5.41794       -2.20423
H         -3.30207       -4.15982       -2.31743
H         -0.97300       -1.52371       -3.71172
H         -2.03539       -2.62601       -4.56250
H         -2.62240       -1.77542       -3.13545
H         -1.30818       -2.46384        3.95468
H         -2.91669       -2.52474        3.22578
H         -2.43515       -3.71873        4.42713
H         -3.54589       -4.59089        1.76317
H         -2.33059       -5.82102        1.43754
H         -2.94747       -5.61561        3.06941
H         -0.49497       -5.33726        3.86046
H          0.10848       -5.43921        2.20916
H          0.49150       -4.03499        3.19484
H         -0.20152       -6.45113       -1.29862
H          0.59775       -5.29579       -0.20505
H         -0.27660       -6.70322        0.44720
C          6.20279        0.55387       -1.64149
C          4.34569       -2.81037       -1.09010
C          6.09493       -2.02406        0.53599
C          3.95566       -2.94506        1.38557
C          4.05881        3.87273        1.65676
C          6.16986        2.94497        0.75174
C          4.46858        3.91896       -0.82034
H          4.78460       -3.80775       -1.08773
H          3.27975       -2.91348       -1.29172
H          4.78612       -2.25188       -1.91372
H          6.28636       -1.46489        1.45118
H          6.52512       -3.01897        0.64859
H          6.62298       -1.52746       -0.27449
H          2.90298       -3.15304        1.20051
H          4.46236       -3.90501        1.48178
H          4.03419       -2.42643        2.34064
H          4.59808        4.80359        1.83051
H          3.01557        4.13099        1.48341
H          4.11230        3.27820        2.56836
H          6.63365        3.91145        0.94767
H          6.33235        2.30720        1.61991
H          6.68839        2.49715       -0.09265
H          3.40962        4.07312       -1.02507
H          4.90157        3.41239       -1.68061
H          4.94030        4.89749       -0.73460
H          5.75841        1.46036       -2.04887
H          7.27146        0.54753       -1.85697
H          5.73473       -0.30800       -2.11409
