171
-217.83913649
P         -1.51225        0.09236       -0.06850
P          1.76964       -0.49512       -0.12623
C         -0.87352        1.35608       -1.18378
C          0.98860       -1.19636       -1.59788
C         -0.08033        0.96253       -2.25387
C          0.44224        1.94510       -3.11675
C          0.10841        3.27277       -2.90279
C         -0.69316        3.64368       -1.84320
C         -1.17924        2.67952       -0.98283
C          1.18352       -2.54813       -1.75712
C          0.58999       -3.21954       -2.80823
C         -0.21731       -2.52888       -3.68592
C         -0.44049       -1.17071       -3.53436
C          0.18180       -0.48216       -2.47590
Cl         1.44831       -1.66013        2.89610
Cl        -1.60112       -2.36276        2.24236
C         -1.35331       -0.48058       -4.48650
C          1.32672        1.57494       -4.25575
H         -0.93597        4.68164       -1.68411
H         -1.80341        2.96040       -0.15264
H          1.79900       -3.07996       -1.04634
H          0.75093       -4.27769       -2.93440
H          0.47845        4.02082       -3.58288
H         -0.69691       -3.04831       -4.49850
C         -4.38090       -2.54854       -2.37929
C         -3.51783       -3.14301       -1.46632
C         -2.65121       -2.31961       -0.76248
C         -2.63453       -0.96665       -0.98384
C         -3.48205       -0.39665       -1.90237
C         -4.38324       -1.17909       -2.61547
H         -5.08582       -3.16023       -2.90973
H         -2.00294       -2.73443       -0.01165
H         -3.42655        0.66529       -2.06702
C         -4.08947        2.12910        3.09489
C         -3.02577        1.34724        3.52815
C         -2.23079        0.73865        2.56775
C         -2.49635        0.88795        1.22728
C         -3.56967        1.64412        0.82373
C         -4.37887        2.29350        1.74612
H         -4.71103        2.61286        3.82336
H         -1.40885        0.12431        2.88493
H         -3.78100        1.73572       -0.22756
C          2.37657        3.97628        0.30385
C          3.05201        3.28840       -0.69597
C          2.80999        1.92603       -0.82262
C          1.93659        1.28959        0.02481
C          1.29595        1.98242        1.02570
C          1.50368        3.34683        1.18367
H          2.55762        5.02950        0.40685
H          3.31579        1.34402       -1.57319
H          0.64524        1.45586        1.70127
C          6.00011       -2.12719       -0.05417
C          5.30599       -2.05393        1.14743
C          4.00557       -1.56903        1.11734
C          3.43326       -1.17406       -0.06440
C          4.13515       -1.24995       -1.24249
C          5.43626       -1.73490       -1.26261
H          7.00526       -2.50460       -0.04062
H          3.41612       -1.51260        2.01316
H          3.65847       -0.93660       -2.15680
Pd         0.00281       -1.13412        1.26393
C         -4.51632       -5.40476       -2.07332
C         -3.50232       -4.65262       -1.19068
C         -3.85757       -4.90056        0.28726
C         -2.09502       -5.20475       -1.48453
H         -5.53361       -5.06554       -1.87895
H         -4.29842       -5.25912       -3.13123
H         -4.48277       -6.47574       -1.87368
H         -4.84070       -4.49231        0.52028
H         -3.87178       -5.96679        0.51195
H         -3.13503       -4.42962        0.95271
H         -1.82072       -5.02193       -2.52315
H         -1.34414       -4.73252       -0.85203
H         -2.05184       -6.27918       -1.30763
C         -5.12723        0.92897       -3.83338
C         -5.41500       -0.56320       -3.57267
C         -6.81202       -0.69148       -2.93946
C         -5.39387       -1.30142       -4.92517
H         -5.84381        1.34252       -4.54287
H         -5.20311        1.51246       -2.91627
H         -4.13014        1.06890       -4.24999
H         -6.84693       -0.18198       -1.97673
H         -7.57504       -0.25295       -3.58232
H         -7.07232       -1.73640       -2.77319
H         -4.40725       -1.24793       -5.38312
H         -5.65534       -2.35253       -4.81236
H         -6.10803       -0.85832       -5.61913
C         -1.28783        1.53198        5.33226
C         -2.72839        1.09367        5.01330
C         -2.88444       -0.41094        5.30407
C         -3.68889        1.87496        5.92989
H         -1.15063        2.58908        5.10764
H         -1.05807        1.37925        6.38653
H         -0.56305        0.96400        4.75057
H         -2.18854       -1.00249        4.71015
H         -2.69460       -0.62793        6.35495
H         -3.89344       -0.74624        5.06552
H         -4.72276        1.57241        5.76482
H         -3.45646        1.69178        6.97889
H         -3.60936        2.94808        5.75660
C         -4.99233        4.26866        0.33191
C         -5.54514        3.15343        1.23973
C         -6.31966        3.80663        2.40017
C         -6.51706        2.26719        0.43843
H         -4.48494        3.85610       -0.53947
H         -5.79422        4.91448       -0.02531
H         -4.27640        4.88646        0.87386
H         -7.13952        4.41734        2.02217
H         -6.74814        3.05228        3.05980
H         -5.67055        4.45424        2.98934
H         -7.36605        2.84656        0.07610
H         -6.02528        1.82154       -0.42519
H         -6.90002        1.45720        1.05883
C          4.77873        3.06322       -2.55142
C          4.06887        4.02577       -1.57971
C          5.13916        4.67987       -0.68512
C          3.34707        5.10945       -2.39881
H          5.31434        2.28642       -2.00634
H          4.06735        2.58565       -3.22379
H          5.50433        3.59687       -3.16510
H          5.63838        3.92950       -0.07229
H          5.89637        5.18211       -1.28699
H          4.70144        5.42068       -0.01727
H          2.83835        5.82244       -1.75098
H          4.05141        5.66335       -3.01923
H          2.60263        4.66211       -3.05514
C         -0.68206        3.95720        2.27361
C          0.84828        4.08760        2.35961
C          1.20198        5.58742        2.36205
C          1.35164        3.46609        3.67512
H         -1.16512        4.43820        3.12389
H         -1.05766        4.42888        1.36656
H         -0.98784        2.91352        2.26470
H          2.27666        5.73825        2.46218
H          0.86742        6.07013        1.44390
H          0.71974        6.09599        3.19684
H          1.09857        2.40851        3.73313
H          2.43546        3.55175        3.75018
H          0.91317        3.96661        4.53813
C          5.03913       -2.34498        3.66217
C          5.97870       -2.50834        2.45084
C          7.23980       -1.65931        2.69492
C          6.36592       -3.99379        2.33232
H          4.13641       -2.94364        3.54265
H          5.53016       -2.66893        4.57960
H          4.74687       -1.30352        3.79457
H          6.98462       -0.60166        2.75873
H          7.72865       -1.94556        3.62600
H          7.96203       -1.78107        1.88854
H          7.07314       -4.15567        1.51972
H          6.82808       -4.35107        3.25241
H          5.48558       -4.60579        2.13685
C          6.27956       -0.42506       -3.22828
C          6.18159       -1.82822       -2.60142
C          5.40458       -2.76388       -3.54658
C          7.60717       -2.38480       -2.42377
H          6.82063       -0.45687       -4.17379
H          5.29194       -0.00936       -3.42468
H          6.80548        0.25783       -2.56144
H          5.30450       -3.75668       -3.10833
H          4.40276       -2.38413       -3.74453
H          5.91720       -2.86644       -4.50284
H          7.58654       -3.38848       -1.99955
H          8.12157       -2.44322       -3.38294
H          8.19959       -1.74437       -1.77054
H         -1.59839        0.52764       -4.15108
H          0.74396        1.39170       -5.15921
H         -2.28917       -1.03109       -4.58408
H         -0.90242       -0.40821       -5.47727
H          1.89895        0.67291       -4.03283
H          2.03854        2.37163       -4.47608
