111
-148.55541293
P         -2.58594        1.98573        1.03190
P          0.15845        0.50738        0.46954
C         -1.43181        1.67497        2.39723
C         -0.22284        1.06560        2.14017
C         -3.57935        3.51989        1.32148
C         -3.49066        4.45573        0.13630
C         -1.76179        2.02688        3.69062
H         -2.71500        2.48789        3.89092
C         -0.87419        1.77246        4.72204
H         -1.13161        2.04706        5.73197
C          0.33863        1.16451        4.45984
H          1.02809        0.96373        5.26328
C          0.66369        0.80586        3.16406
H          1.59922        0.31639        2.94266
Pd        -1.34220        1.65969       -0.88003
Cl        -3.00271        2.32005       -2.22629
Cl         0.09288        1.21640       -2.55928
C         -4.99772        2.96761        1.57650
C         -3.93640        0.72620        0.92099
H         -3.89459        3.97970       -0.75851
H         -4.05884        5.37354        0.30557
H         -2.45518        4.73195       -0.07644
H         -5.74360        3.69643        1.22695
H         -5.17018        2.86328        2.65785
H         -3.79451        0.18908       -0.02713
C         -5.21356        1.59062        0.88666
C         -3.87111       -0.23384        2.08828
H         -3.17132        4.00329        2.21915
H         -6.04067        1.04361        1.36229
H         -5.52527        1.75245       -0.15580
H         -3.98983        0.29992        3.03312
H         -4.65815       -0.98966        2.03194
H         -2.90856       -0.74858        2.12083
C         -1.20220       -3.79957       -0.12421
C         -0.98865       -3.31026        1.19219
C         -0.57255       -1.99801        1.34402
C         -0.43532       -1.17011        0.26113
C         -0.74719       -1.60614       -0.99838
C         -1.18538       -2.89900       -1.22243
O         -1.34346       -5.19241       -0.35309
C         -1.18132       -4.15434        2.46330
H         -0.33007       -1.61179        2.31896
H         -0.62400       -0.91914       -1.81811
C         -1.64174       -3.26107       -2.64524
C          4.58548        0.56727       -0.58410
C          3.98241       -0.62098       -0.09867
C          2.63152       -0.59162        0.20202
C          1.90782        0.56816        0.10489
C          2.50884        1.74388       -0.25852
C          3.85696        1.78501       -0.57653
O          5.90304        0.52923       -1.11312
C          4.75010       -1.94213        0.06442
H          2.11625       -1.48816        0.50097
H          1.90056        2.63023       -0.31191
C          4.49419        3.13160       -0.95331
C         -1.98843       -3.34669        3.50358
C         -1.96821       -5.44898        2.19510
C          0.19537       -4.50233        3.05384
C         -2.43356       -4.57917       -2.68766
C         -2.57824       -2.15216       -3.17650
C         -0.41438       -3.36606       -3.56553
C         -0.10274       -5.83699       -0.59023
H         -2.95092       -3.04490        3.09208
H         -2.17902       -3.94410        4.39477
H         -1.45989       -2.44982        3.82215
H         -2.17770       -5.98084        3.12290
H         -2.91715       -5.22775        1.70778
H         -1.41081       -6.12285        1.54896
H          0.78913       -5.08363        2.35086
H          0.75584       -3.59931        3.29416
H          0.09090       -5.08583        3.96818
H         -3.27094       -4.54670       -1.99151
H         -2.82768       -4.76872       -3.68579
H         -1.80656       -5.42486       -2.41537
H         -3.41729       -1.99975       -2.49823
H         -2.05953       -1.20136       -3.28704
H         -2.97968       -2.41761       -4.15401
H          0.26427       -4.14767       -3.22955
H         -0.71302       -3.59713       -4.58765
H          0.14088       -2.42873       -3.58235
H          0.55390       -5.71233        0.26936
H         -0.27632       -6.89978       -0.76012
H          0.38141       -5.40688       -1.46536
C          5.95892        0.24553       -2.50566
C          4.14497       -2.78635        1.21021
C          4.65332       -2.74906       -1.23941
C          6.22453       -1.68722        0.42551
C          5.97844        3.17875       -0.54714
C          4.35041        3.35293       -2.46681
C          3.79039        4.29389       -0.21666
H          4.07545       -2.20201        2.12738
H          3.15027       -3.15314        0.96069
H          4.76404       -3.65932        1.41585
H          5.17892       -3.69947       -1.15050
H          3.61263       -2.96026       -1.48490
H          5.08521       -2.20289       -2.07451
H          6.29907       -1.08132        1.32790
H          6.75270       -2.62407        0.60110
H          6.74372       -1.16179       -0.37198
H          6.56244        2.43902       -1.08879
H          6.41108        4.15677       -0.75639
H          6.09123        2.97860        0.51784
H          4.85418        2.57072       -3.02936
H          3.30041        3.34560       -2.75848
H          4.77761        4.31020       -2.76429
H          3.76021        4.11047        0.85707
H          2.77034        4.43663       -0.57003
H          4.31923        5.23247       -0.38105
H          6.45731        1.06333       -3.02587
H          6.53561       -0.66425       -2.67144
H          4.95316        0.11747       -2.90797
