111
-148.55619605
P         -2.64665        2.09539        0.26651
P          0.06297        0.48198        0.46777
C         -1.81297        1.93777        1.86967
C         -0.60746        1.27384        1.94230
C         -3.49054        3.73236        0.08311
C         -2.71015        4.66450       -0.81772
C         -2.37661        2.46632        3.01347
H         -3.32976        2.96571        2.95695
C         -1.72276        2.33668        4.22672
H         -2.16187        2.74975        5.12014
C         -0.51082        1.67652        4.29496
H         -0.00337        1.57363        5.23998
C          0.04637        1.13818        3.14904
H          0.98295        0.60403        3.18692
Pd        -1.09934        1.41340       -1.30370
Cl        -2.49377        2.14345       -2.90102
Cl         0.49334        0.67640       -2.70633
C         -4.88231        3.33758       -0.44456
C         -4.08893        0.95385        0.05857
H         -1.70585        4.84507       -0.42717
H         -2.60085        4.23900       -1.81597
H         -3.21180        5.62907       -0.92475
H         -4.86157        3.35991       -1.54295
H         -5.63270        4.08598       -0.14729
H         -3.96101        0.47910       -0.92357
C         -5.29212        1.91558        0.03566
C         -4.13291       -0.08671        1.15664
H         -3.57363        4.15543        1.09212
H         -5.71323        1.97893        1.04845
H         -6.09727        1.50604       -0.59309
H         -4.19201        0.38783        2.13790
H         -4.99980       -0.74309        1.05129
H         -3.23579       -0.70898        1.14727
C         -1.29476       -3.86237        0.25058
C         -1.01433       -3.14361       -0.93914
C         -0.58458       -1.83440       -0.82345
C         -0.50955       -1.21492        0.39545
C         -0.88434       -1.87012        1.53853
C         -1.31767       -3.18483        1.49688
O         -1.51192       -5.26503        0.20178
C         -1.14482       -3.75710       -2.34140
H         -0.28485       -1.27449       -1.69195
H         -0.82648       -1.33847        2.47171
C         -1.77165       -3.86700        2.79656
C          4.59774        0.65599        0.08618
C          3.90309       -0.54688       -0.19839
C          2.52436       -0.54844       -0.07900
C          1.84722        0.55592        0.36706
C          2.52102        1.69095        0.73444
C          3.90242        1.75911        0.64599
O          5.97986        0.76739       -0.22140
C          4.60776       -1.82943       -0.66741
H          1.95362       -1.41938       -0.34891
H          1.94744        2.53006        1.08851
C          4.62158        3.02841        1.12974
C         -1.55297       -2.67500       -3.36843
C          0.20822       -4.35017       -2.76280
C         -2.23735       -4.84083       -2.37691
C         -0.56712       -4.55459        3.45676
C         -2.35130       -2.83103        3.78671
C         -2.88353       -4.89520        2.52020
C         -0.32075       -6.03637        0.29516
H         -2.44122       -2.13925       -3.03456
H         -0.75767       -1.94914       -3.53020
H         -1.77657       -3.12394       -4.33578
H          0.97757       -3.57849       -2.78127
H          0.53264       -5.12372       -2.07054
H          0.14858       -4.79066       -3.75766
H         -2.37278       -5.22805       -3.38645
H         -1.98598       -5.68030       -1.73390
H         -3.19027       -4.43534       -2.03843
H         -0.85538       -5.03453        4.39165
H         -0.14263       -5.31533        2.80616
H          0.21717       -3.83046        3.67627
H         -3.13626       -2.24020        3.31566
H         -2.78311       -3.32694        4.65573
H         -1.58426       -2.15170        4.15560
H         -3.72409       -4.42394        2.01185
H         -2.52529       -5.70656        1.89121
H         -3.25044       -5.33451        3.44748
H         -0.40117       -6.72992        1.13212
H         -0.18613       -6.61750       -0.61685
H          0.54307       -5.38673        0.44235
C          6.24372        1.24510       -1.53461
C          6.01554       -1.94520       -0.05592
C          3.81781       -3.08179       -0.22002
C          4.69173       -1.82796       -2.20135
C          4.73587        4.02359       -0.03483
C          3.83158        3.69967        2.27643
C          6.01927        2.69735        1.68420
H          6.49062       -2.88365       -0.34070
H          6.66083       -1.13603       -0.38830
H          5.96544       -1.90661        1.03174
H          2.86470       -3.16638       -0.74002
H          4.37944       -3.99057       -0.43512
H          3.62256       -3.05499        0.85172
H          5.25923       -0.97456       -2.56444
H          5.17399       -2.73399       -2.56732
H          3.69587       -1.77367       -2.64077
H          5.30661        3.60244       -0.85884
H          3.74908        4.28570       -0.41568
H          5.23037        4.94126        0.28266
H          2.88636        4.11273        1.92755
H          3.62166        2.98566        3.07245
H          4.40024        4.52344        2.70733
H          6.66795        2.29380        0.91079
H          5.95044        1.95818        2.48162
H          6.50200        3.58734        2.08716
H          6.83771        2.15721       -1.47922
H          6.81571        0.50011       -2.08738
H          5.30955        1.44973       -2.05927
