111
-148.54950483
P         -2.19722        2.17893        1.39450
P          0.14404        0.18588        0.60973
C         -1.18779        1.41401        2.69036
C         -0.16328        0.55949        2.34619
C         -2.31335        4.00239        1.69472
C         -1.69479        4.78971        0.56047
C         -1.42585        1.70457        4.01867
H         -2.21211        2.39353        4.28053
C         -0.64807        1.11979        5.00288
H         -0.83508        1.34441        6.04029
C          0.36733        0.24971        4.65634
H          0.97163       -0.20848        5.42194
C          0.61040       -0.03059        3.32366
H          1.39773       -0.71007        3.04038
Pd        -1.43728        1.35638       -0.63031
Cl        -2.84880        2.77350       -1.63481
Cl        -0.55124        0.35170       -2.43142
C         -3.82658        4.24239        1.88619
C         -3.99259        1.72726        1.42395
H         -2.23737        4.61676       -0.36952
H         -1.71827        5.86399        0.75820
H         -0.65482        4.49798        0.39476
H         -4.10160        5.20968        1.44155
H         -4.05833        4.33567        2.95728
H         -4.17125        1.09432        0.54401
C         -4.68297        3.09809        1.27348
C         -4.36566        0.99209        2.69402
H         -1.76462        4.19305        2.62727
H         -5.67811        3.06355        1.74084
H         -4.86054        3.30880        0.20842
H         -3.74031        0.10909        2.84358
H         -4.23620        1.63689        3.56450
H         -5.40974        0.67042        2.67895
C         -1.25260       -4.03722       -0.36045
C         -2.15167       -3.09793        0.20799
C         -1.66887       -1.83945        0.52985
C         -0.38177       -1.48049        0.22315
C          0.44876       -2.34036       -0.44609
C          0.03533       -3.61788       -0.78057
O         -1.62405       -5.40333       -0.47261
C         -3.62881       -3.42363        0.47843
H         -2.29614       -1.11513        1.02094
H          1.43171       -1.99631       -0.71273
C          0.98952       -4.53089       -1.56572
C          4.36889        0.93350       -0.92447
C          4.14950       -0.06679        0.05687
C          2.85632       -0.26881        0.51016
C          1.82340        0.52562        0.08319
C          2.05395        1.56952       -0.77456
C          3.32124        1.82399       -1.27101
O          5.61967        1.01386       -1.59242
C          5.27810       -0.95678        0.60107
H          2.63534       -1.07588        1.18644
H          1.21686        2.17199       -1.08150
C          3.52226        3.01654       -2.21846
C         -4.15978       -4.47546       -0.51274
C         -3.78183       -3.93006        1.92022
C         -4.50083       -2.16057        0.29792
C          1.86648       -5.31604       -0.57885
C          0.20838       -5.50213       -2.46920
C          1.90647       -3.69555       -2.48864
C         -1.32236       -6.17742        0.68131
H         -5.22540       -4.64988       -0.36619
H         -4.00786       -4.14496       -1.53972
H         -3.65127       -5.42848       -0.39093
H         -4.82305       -4.15984        2.14495
H         -3.19488       -4.83099        2.08468
H         -3.44093       -3.17765        2.63111
H         -4.30259       -1.42227        1.07188
H         -4.31747       -1.69835       -0.67178
H         -5.56035       -2.40848        0.35662
H          1.26081       -5.94099        0.07347
H          2.56798       -5.96114       -1.10723
H          2.44045       -4.63712        0.05145
H          0.88491       -6.10349       -3.07594
H         -0.40205       -6.18454       -1.88280
H         -0.45291       -4.95401       -3.13945
H          2.49351       -4.34274       -3.13983
H          1.31749       -3.03035       -3.11955
H          2.61140       -3.09159       -1.91981
H         -0.82490       -5.56247        1.43236
H         -2.24181       -6.58701        1.09913
H         -0.67299       -7.00761        0.40368
C          5.70069        0.20834       -2.76185
C          4.98923       -1.36690        2.06318
C          5.38047       -2.22921       -0.25376
C          6.62415       -0.20951        0.60456
C          3.25708        2.56381       -3.66245
C          2.54005        4.15941       -1.87259
C          4.94392        3.59335       -2.09381
H          4.78621       -0.49055        2.67822
H          4.13628       -2.04023        2.13311
H          5.84351       -1.88814        2.49463
H          5.58703       -1.99032       -1.29435
H          6.17691       -2.87931        0.10747
H          4.44735       -2.79068       -0.22126
H          6.54656        0.71770        1.17132
H          7.40891       -0.81742        1.05410
H          6.94142        0.04236       -0.40415
H          3.37657        3.39226       -4.36009
H          3.94127        1.77254       -3.95931
H          2.24243        2.17934       -3.76450
H          2.76636        5.05285       -2.45405
H          1.50926        3.88758       -2.09507
H          2.60624        4.42143       -0.81695
H          5.15425        3.87572       -1.06281
H          5.06436        4.47751       -2.71930
H          5.69444        2.86924       -2.40066
H          6.51136       -0.51223       -2.65513
H          4.76154       -0.32237       -2.92389
H          5.91578        0.83766       -3.62531
