105
-153.05829304
Cl         0.41976        3.61398        1.64812
Pd        -0.09776        1.99827        0.16834
P         -0.71634        0.23334       -1.30134
N          0.12124       -1.18980       -1.94991
C          0.20911       -2.51448       -1.53371
C         -0.11083       -2.97683       -0.22772
C          0.22086       -4.30115        0.13455
C          0.13502       -4.72375        1.58335
C         -0.02846       -6.23958        1.76009
C          1.06704       -6.98268        0.98911
C          1.02029       -6.63964       -0.51012
C          0.72173       -5.19064       -0.81948
C          0.94621       -4.73739       -2.11239
C          0.71960       -3.42955       -2.45406
H          0.94477       -3.08914       -3.45002
H          1.32976       -5.42577       -2.84655
H          1.97048       -6.91103       -0.98758
H          2.04714       -6.70418        1.39651
H         -0.02140       -6.51701        2.82369
H          1.05221       -4.39441        2.08652
C         -0.71218       -2.09701        0.80988
C          0.09613       -1.09276        1.40186
C         -0.37888       -0.39993        2.51555
C         -1.62555       -0.67006        3.01761
C         -2.44997       -1.62602        2.43075
C         -3.80903       -1.87149        3.03189
C         -4.38991       -3.24295        2.65767
C         -4.31339       -3.46141        1.14368
C         -2.86433       -3.37890        0.63362
C         -2.00185       -2.33960        1.31563
H         -2.39021       -4.36020        0.74164
H         -4.92036       -2.69892        0.64299
H         -5.42380       -3.34400        3.01727
H         -4.48837       -1.07752        2.70034
H         -1.98792       -0.12375        3.87180
H          0.23335        0.36567        2.95569
N          1.25976       -0.73029        0.73041
P          1.80978        0.88563        0.96562
C          2.91932        1.36335       -0.35320
C          3.17155        2.69845       -0.56121
C          3.93946        3.08962       -1.64276
C          4.44470        2.14572       -2.52739
C          4.18274        0.80179       -2.29470
C          3.41515        0.41190       -1.21225
H          3.19074       -0.62858       -1.04207
H          4.57672        0.06298       -2.97149
C          5.27719        2.56482       -3.68864
H          4.13965        4.13352       -1.81345
H          2.73286        3.42589        0.10394
C          2.61633        0.95708        2.56513
C          3.37552       -0.12417        2.94449
C          4.01335       -0.11961        4.17275
C          3.89729        0.97107        5.02429
C          3.11606        2.04802        4.62691
C          2.48094        2.03953        3.40008
H          1.86809        2.86830        3.09014
H          3.00594        2.89198        5.28628
C          4.56140        0.96562        6.35720
H          4.60327       -0.96679        4.47829
H          3.45422       -0.97099        2.28040
H          1.11798       -0.84351       -0.27264
H          0.32949       -0.99862       -2.92213
C         -0.60124        1.39452       -2.67298
C         -1.71483        1.88282       -3.31345
C         -1.56896        2.78521       -4.35067
C         -0.30699        3.19868       -4.75699
C          0.80470        2.70005       -4.09193
C          0.65587        1.79755       -3.05504
H          1.51701        1.42065       -2.52803
H          1.78757        3.02832       -4.38385
C         -0.15069        4.19568       -5.85182
H         -2.43817        3.18062       -4.84789
H         -2.69386        1.56879       -2.99142
C         -2.44917       -0.18972       -1.12644
C         -2.99878       -1.01053       -2.08223
C         -4.34820       -1.31403       -2.03762
C         -5.15369       -0.79797       -1.03178
C         -4.57971        0.02904       -0.07588
C         -3.23090        0.32794       -0.12151
H         -2.78719        0.97276        0.61922
H         -5.19804        0.44525        0.70088
C         -6.61200       -1.09769       -0.99976
H         -4.78424       -1.95105       -2.78796
H         -2.36780       -1.40689       -2.86231
Cl        -2.00571        3.08566       -0.31324
H          0.26081       -7.25821       -1.00326
H         -1.01147       -6.54549        1.38068
H          0.98283       -8.06756        1.14443
H         -0.67324       -4.19036        2.09512
H         -4.76925       -4.42250        0.86717
H         -2.85538       -3.17772       -0.44479
H         -3.74456       -1.76809        4.12262
H         -3.82042       -4.03039        3.16736
H          4.99861        3.56163       -4.03349
H          6.33436        2.58428       -3.42051
H          5.15485        1.87899       -4.52818
H          4.79246        1.97957        6.68666
H          3.91775        0.50613        7.10852
H          5.49755        0.40631        6.32799
H         -0.15418        5.21105       -5.45323
H          0.78768        4.04768       -6.38816
H         -0.96218        4.11558       -6.57644
H         -7.00462       -1.04006        0.01650
H         -7.16626       -0.38764       -1.61493
H         -6.81576       -2.10095       -1.37679
