45
-71.81536560
C          2.34873        1.19206        2.43419
P          1.54239        0.84562        0.83553
P         -1.03753        0.18586       -0.89350
C         -0.42859       -0.29034       -2.54635
Cl         1.50763       -1.96165        2.20462
H          1.59995        1.45431        3.17613
H          0.63736       -0.09404       -2.61727
Cl        -1.30491       -2.67907        0.39493
C          0.48399        2.19161        0.26137
C         -0.62050        1.89928       -0.50977
C         -1.41783        2.91463       -0.99595
C         -1.10343        4.23150       -0.70967
C          0.00742        4.52537        0.05725
C          0.80560        3.50379        0.54142
H         -2.28103        2.66935       -1.59391
H         -1.72476        5.02702       -1.08686
H          0.25506        5.55092        0.27662
H          1.68155        3.72259        1.13018
Pd         0.13862       -0.99438        0.71167
H         -0.94409        0.28283       -3.31163
H          3.05043        2.01448        2.32883
H         -0.60152       -1.34941       -2.71510
C         -5.47845       -0.54148       -0.22782
C         -4.88856       -0.98165       -1.39628
C         -3.54049       -0.76138       -1.61479
C         -2.79418       -0.10086       -0.66563
C         -3.37636        0.33605        0.50253
C         -4.72464        0.11699        0.72335
H         -6.52822       -0.71538       -0.05640
H         -5.47620       -1.50019       -2.13597
H         -3.06819       -1.10833       -2.51932
H         -2.77192        0.84484        1.23740
H         -5.18321        0.45678        1.63739
C          4.46471       -0.33829       -2.43647
C          4.28469       -1.15904       -1.34016
C          3.40337       -0.78751       -0.34176
C          2.71725        0.40031       -0.44287
C          2.88460        1.21731       -1.53707
C          3.76459        0.84825       -2.53838
H          5.15012       -0.62657       -3.21668
H          4.82308       -2.08947       -1.26518
H          3.21981       -1.42747        0.50652
H          2.32425        2.13575       -1.60527
H          3.90151        1.48506       -3.39686
H          2.88690        0.31131        2.77266
