111
-148.55572535
P         -2.61012        2.13520        0.19002
P          0.04726        0.42977        0.47715
C         -1.82267        1.95702        1.81484
C         -0.64301        1.25302        1.92477
C         -3.38266        3.80517       -0.01647
C         -2.55526        4.69643       -0.91669
C         -2.39845        2.51256        2.93965
H         -3.33241        3.04320        2.85427
C         -1.78220        2.37046        4.17106
H         -2.23080        2.80507        5.04942
C         -0.59549        1.67074        4.27649
H         -0.11690        1.55856        5.23542
C         -0.02656        1.10520        3.14962
H          0.89063        0.54090        3.21629
Pd        -1.06110        1.34718       -1.33461
Cl        -2.45089        2.13254       -2.91221
Cl         0.52272        0.52520       -2.69719
C         -4.78574        3.46611       -0.55278
C         -4.09522        1.05443       -0.03732
H         -3.01433        5.68067       -1.03516
H         -1.54770        4.83691       -0.51813
H         -2.45513        4.25940       -1.91085
H         -4.75613        3.48268       -1.65101
H         -5.50663        4.24619       -0.26418
H         -3.97666        0.57804       -1.01983
C         -5.25767        2.06438       -0.06989
C         -4.18994        0.01303        1.05645
H         -3.45632        4.24014        0.98823
H         -5.68122        2.14872        0.94035
H         -6.07555        1.68629       -0.70191
H         -4.24380        0.48621        2.03869
H         -5.07852       -0.61145        0.93837
H         -3.31476       -0.64021        1.05520
C         -1.28153       -3.92850        0.32545
C         -0.94354       -3.24323       -0.87127
C         -0.52989       -1.92740       -0.77327
C         -0.51624       -1.27111        0.42872
C         -0.96281       -1.88946        1.56701
C         -1.39443       -3.20546        1.54330
O         -1.42245       -5.34002        0.31841
C         -1.02265       -3.86334       -2.27597
H         -0.19991       -1.39275       -1.64725
H         -0.96618       -1.33119        2.48701
C         -1.97663       -3.79546        2.83893
C          4.57636        0.70236        0.09224
C          3.90464       -0.49928       -0.24736
C          2.52725       -0.53629       -0.11823
C          1.83059        0.53083        0.38464
C          2.48407        1.65935        0.80546
C          3.86329        1.75956        0.71482
O          5.95116        0.86208       -0.22633
C          4.63084       -1.73818       -0.79392
H          1.97283       -1.40392       -0.42908
H          1.89612        2.46917        1.20179
C          4.55941        3.01505        1.26364
C         -1.74957       -2.88455       -3.22567
C          0.39989       -4.11333       -2.80420
C         -1.81732       -5.18030       -2.29095
C         -0.83843       -4.04444        3.84211
C         -2.98312       -2.79739        3.45342
C         -2.74107       -5.10781        2.59271
C         -0.19541       -6.01345        0.54530
H         -2.73080       -2.62293       -2.83071
H         -1.18761       -1.96281       -3.36645
H         -1.89089       -3.33068       -4.20965
H          0.37358       -4.53675       -3.80784
H          0.96791       -3.18452       -2.84767
H          0.94211       -4.80504       -2.16215
H         -1.94392       -5.55136       -3.30772
H         -1.30955       -5.95360       -1.71944
H         -2.80551       -5.03755       -1.85509
H         -0.11446       -4.75446        3.44675
H         -0.30819       -3.11950        4.06693
H         -1.22533       -4.44561        4.77849
H         -3.77225       -2.56006        2.74079
H         -3.45138       -3.21732        4.34327
H         -2.50354       -1.86576        3.74899
H         -2.07272       -5.89566        2.25341
H         -3.22618       -5.45694        3.50395
H         -3.50739       -4.96888        1.83090
H          0.20226       -5.74617        1.52301
H         -0.36347       -7.08992        0.50677
H          0.53091       -5.73443       -0.21651
C          6.18393        1.42014       -1.51354
C          6.05334       -1.85008       -0.21679
C          3.88054       -3.03061       -0.39576
C          4.68336       -1.65585       -2.32714
C          4.63464        4.07958        0.15881
C          3.76926        3.59736        2.45792
C          5.97196        2.68599        1.78031
H          6.54366       -2.76189       -0.55691
H          6.67295       -1.01058       -0.52162
H          6.02517       -1.86587        0.87221
H          2.91810       -3.11122       -0.89858
H          4.45792       -3.91319       -0.67013
H          3.70908       -3.06382        0.67983
H          5.22036       -0.76930       -2.65589
H          5.18188       -2.52821       -2.74885
H          3.67767       -1.60631       -2.74415
H          5.20439        3.72167       -0.69533
H          3.63698        4.33966       -0.19412
H          5.11147        4.98871        0.52428
H          4.32359        4.40819        2.93003
H          2.80934        4.00625        2.14632
H          3.58785        2.83233        3.21248
H          6.61944        2.34530        0.97625
H          5.93158        1.89910        2.53274
H          6.43879        3.56195        2.23003
H          6.75777        0.71874       -2.11892
H          5.23731        1.63850       -2.00958
H          6.76338        2.33792       -1.41468
