87
-129.17876290
P         -1.74469       -0.38488        0.19909
P          1.51382        0.42639       -0.11454
C         -1.51085        0.92612       -1.02951
C          1.23657       -0.62913       -1.54327
C         -0.64572        0.88249       -2.12066
C         -0.50598        2.03332       -2.92035
C         -1.24281        3.16546       -2.61858
C         -2.09508        3.19126       -1.53687
C         -2.21947        2.06928       -0.74034
C          2.07400       -1.68622       -1.80233
C          1.87128       -2.46773       -2.92284
C          0.82604       -2.18297       -3.77737
C         -0.03220       -1.12358       -3.53152
C          0.18570       -0.31776       -2.39625
Cl         1.30003        1.73764        2.84163
Cl        -1.29931       -0.01854        3.43763
H         -2.65347        4.08358       -1.30613
H         -2.86586        2.08376        0.12494
H          2.89391       -1.89338       -1.13513
H          2.52626       -3.29877       -3.12700
H         -1.13239        4.04002       -3.23716
H          0.66448       -2.79195       -4.65058
C         -0.33684       -4.62742       -0.64094
C         -1.12403       -3.98388       -1.58543
C         -1.55038       -2.68657       -1.32283
C         -1.19082       -2.05842       -0.15395
C         -0.44821       -2.72160        0.79586
C         -0.00654       -4.00675        0.54718
H          0.00506       -5.62874       -0.84054
C         -1.48854       -4.66991       -2.85492
H         -2.15834       -2.16276       -2.04057
H         -0.25335       -2.24531        1.74372
H          0.58136       -4.52805        1.28489
C         -6.20701       -0.58078        1.07367
C         -5.74620       -0.63726       -0.22706
C         -4.38806       -0.57898       -0.48114
C         -3.50410       -0.46087        0.56634
C         -3.96272       -0.40504        1.86034
C         -5.32163       -0.47141        2.13681
H         -7.26424       -0.61971        1.27399
H         -6.44351       -0.72418       -1.04414
H         -4.01260       -0.61513       -1.49185
H         -3.25578       -0.30318        2.66407
C         -5.81496       -0.38281        3.53826
C          4.90070       -1.28067        2.40992
C          4.99185        0.00744        1.92039
C          3.97041        0.52494        1.14632
C          2.86733       -0.24744        0.86845
C          2.77361       -1.52882        1.35819
C          3.79295       -2.06941        2.13101
H          5.69202       -1.68313        3.01908
H          5.85523        0.61160        2.14615
H          4.02310        1.53220        0.76640
H          1.90283       -2.11983        1.13550
C          3.67022       -3.45047        2.67184
C          2.63976        4.55526       -1.64220
C          1.79368        4.44317       -0.55658
C          1.45670        3.19402       -0.07203
C          1.96274        2.06957       -0.67992
C          2.81391        2.17673       -1.75521
C          3.15955        3.42573       -2.25918
H          2.90774        5.52764       -2.01900
H          1.39974        5.32789       -0.08392
H          0.81591        3.09104        0.78787
H          3.20317        1.28272       -2.21446
C          4.08862        3.54744       -3.41529
Pd        -0.05894        0.42715        1.62470
C          0.42378        2.06889       -4.08398
C         -1.15898       -0.85813       -4.46779
H          1.15221        1.25873       -4.04075
H         -0.12446        1.98129       -5.02269
H          0.97975        3.00716       -4.10757
H         -0.79658       -0.41787       -5.39751
H         -1.68393       -1.78120       -4.71746
H         -1.88738       -0.17365       -4.03130
H         -1.97455       -5.62581       -2.65451
H         -2.17476       -4.06626       -3.45035
H         -0.60153       -4.86316       -3.45981
H         -5.07535       -0.77090        4.24015
H         -6.02475        0.65263        3.80990
H         -6.73168       -0.95922        3.67039
H          2.97899       -3.47474        3.51549
H          3.29561       -4.13559        1.90981
H          4.63360       -3.83013        3.01492
H          4.05566        2.65544       -4.04270
H          3.82723        4.40198       -4.04115
H          5.11607        3.68084       -3.07389
