72
-98.09279899
Fe        -0.00889        2.77764       -0.00082
P          1.86577       -0.07301        0.04710
P         -1.88591       -0.07892       -0.00069
C          1.40367        1.57750        0.70842
C          0.40478        1.82283        1.73526
C          0.32746        3.25859        1.94331
C          1.32179        3.89715        1.09907
C          1.99109        2.85628        0.33735
C         -1.42300        1.56079       -0.68822
C         -2.03316        2.83947       -0.36045
C         -1.34877        3.86350       -1.13195
C         -0.36970        3.21725       -1.98756
C         -0.41591        1.79251       -1.71093
C          3.07289       -0.86381        1.21419
C          4.42046       -0.80100        0.46426
C          2.97748        0.13616       -1.42406
C          4.36623        0.16092       -0.75402
C         -3.16446       -0.79799       -1.12481
C         -4.43181       -0.07157       -0.64676
C         -2.97373        0.14266        1.48843
C         -4.40266        0.19012        0.88872
H         -0.20674        1.06598        2.22450
H         -0.33355        3.76630        2.64996
H          1.53109        4.96804        1.04740
H          2.79303        3.00492       -0.38871
H         -2.84225        2.99831        0.35521
H          0.19504        1.02511       -2.18488
Cl         1.57602       -3.05881       -0.27773
Cl        -1.61581       -3.03637        0.19926
Pd        -0.00353       -1.46639       -0.01007
H          2.74983       -1.90228        1.35463
C          3.06755       -0.15012        2.56170
H          2.73491        1.09918       -1.88953
C          2.85068       -0.99090       -2.44806
H          4.70583       -1.80682        0.12343
H          5.21554       -0.49131        1.15629
H          4.60188        1.18356       -0.42330
H          5.14155       -0.10004       -1.48995
H         -1.57172        4.93266       -1.11172
H          0.28741        3.71250       -2.70593
H          3.43074        0.87646        2.41915
H          3.70200       -0.93724       -3.14087
H         -3.23831       -1.86987       -0.91006
C         -2.80324       -0.57568       -2.58786
H         -2.69850        1.10232        1.94205
C         -2.81091       -0.98728        2.50458
H         -5.33230       -0.63661       -0.93354
H         -4.50356        0.88557       -1.18349
H         -4.88553        1.15030        1.12337
H         -5.01740       -0.56775        1.39387
H         -2.72697        0.50360       -2.77521
H         -2.94488       -1.94366        1.98277
C          3.88842       -0.86491        3.62570
H          3.85315       -0.34579        4.58622
H          3.52151       -1.88014        3.78811
H          4.93762       -0.94579        3.33761
C          1.55319       -0.98052       -3.23988
H          0.68695       -1.09610       -2.58915
H          1.43125       -0.04485       -3.78860
H          1.51501       -1.79288       -3.96924
C         -3.79715       -1.20953       -3.54901
H         -3.86905       -2.28649       -3.38593
H         -4.79811       -0.79581       -3.41449
H         -3.51501       -1.05281       -4.59262
C         -1.48778       -0.97945        3.25404
H         -0.64065       -1.07922        2.57562
H         -1.35508       -0.05155        3.81330
H         -1.42143       -1.80184        3.97003
H          2.02871       -0.04370        2.90389
H          2.96899       -1.94884       -1.92617
H         -1.79474       -0.97150       -2.77121
H         -3.63837       -0.93626        3.22621
