111
-148.55651355
P         -2.22622        2.29340        1.22343
P          0.01864        0.13584        0.57467
C         -1.28477        1.53440        2.57077
C         -0.30601        0.60860        2.28249
C         -2.20957        4.13796        1.36364
C         -1.27570        4.75498        0.34595
C         -1.53697        1.88641        3.88094
H         -2.29823        2.61829        4.09773
C         -0.81120        1.29886        4.90293
H         -1.00855        1.57071        5.92702
C          0.16554        0.36566        4.61182
H          0.73006       -0.09223        5.40731
C          0.41976        0.01996        3.29636
H          1.17832       -0.70688        3.05105
Pd        -1.41903        1.37971       -0.73687
Cl        -2.91988        2.68227       -1.78519
Cl        -0.54213        0.49721       -2.60145
C         -3.69235        4.51310        1.18937
C         -4.05027        1.98148        1.29930
H         -1.27645        5.84548        0.41210
H         -0.25033        4.40711        0.49028
H         -1.57475        4.48523       -0.66838
H         -3.87850        4.72807        0.12809
H         -3.91794        5.44781        1.72491
H         -4.34572        1.69698        0.28043
C         -4.62945        3.36315        1.65547
C         -4.39063        0.88136        2.28048
H         -1.87559        4.36479        2.38467
H         -4.76609        3.42020        2.74404
H         -5.63603        3.47847        1.22572
H         -5.46551        0.68798        2.30812
H         -3.88441       -0.04886        2.01635
H         -4.07740        1.14842        3.29092
C         -1.10881       -4.21168       -0.18788
C         -1.78481       -3.47501        0.81862
C         -1.39834       -2.16339        1.04421
C         -0.43616       -1.56804        0.27036
C          0.13904       -2.24076       -0.77520
C         -0.19436       -3.55587       -1.05045
O         -1.32823       -5.60880       -0.32351
C         -2.90877       -4.08250        1.67364
H         -1.84065       -1.58671        1.83777
H          0.85536       -1.71507       -1.38242
C          0.44774       -4.25646       -2.25795
C          4.26205        0.99759       -0.84022
C          3.98165       -0.21513       -0.16033
C          2.68202       -0.44815        0.25875
C          1.70240        0.49396        0.08182
C          1.99344        1.71149       -0.47600
C          3.27097        2.00861       -0.92045
O          5.52422        1.18579       -1.46442
C          5.05310       -1.28849        0.08814
H          2.41042       -1.38385        0.71611
H          1.19727        2.42780       -0.58056
C          3.54515        3.39453       -1.52533
C         -2.30225       -4.72341        2.93116
C         -3.91028       -2.99165        2.11508
C         -3.71163       -5.12633        0.87581
C          1.70640       -5.01010       -1.80258
C         -0.54593       -5.23009       -2.91658
C          0.85818       -3.22730       -3.33621
C         -0.47627       -6.41619        0.47937
H         -3.07809       -5.15917        3.56017
H         -1.59705       -5.50968        2.67382
H         -1.76695       -3.98007        3.52159
H         -4.26890       -2.42530        1.25594
H         -4.77531       -3.43631        2.60665
H         -3.46182       -2.29889        2.82549
H         -4.54844       -5.50780        1.46035
H         -4.10895       -4.68678       -0.03849
H         -3.09337       -5.97509        0.59529
H          2.20597       -5.48285       -2.64782
H          2.41264       -4.32890       -1.32961
H          1.46348       -5.78590       -1.08143
H         -0.11452       -5.68832       -3.80614
H         -0.82570       -6.03071       -2.23598
H         -1.45592       -4.70815       -3.21065
H          1.18801       -3.72969       -4.24519
H          0.01973       -2.58162       -3.59615
H          1.68341       -2.60068       -3.00053
H         -1.07266       -6.98157        1.19497
H          0.05330       -7.12742       -0.15434
H          0.24406       -5.79601        1.01433
C          5.57748        0.74796       -2.81659
C          5.11606       -2.23509       -1.12013
C          6.43068       -0.64675        0.33377
C          4.71305       -2.12189        1.34473
C          3.27194        3.34957       -3.03674
C          2.62014        4.46047       -0.89470
C          4.99307        3.84219       -1.25606
H          5.84728       -3.02677       -0.95880
H          4.14667       -2.70019       -1.29431
H          5.39315       -1.70276       -2.02625
H          7.17893       -1.40304        0.56955
H          6.77716       -0.10331       -0.54178
H          6.38391        0.05534        1.16555
H          3.82992       -2.74047        1.19093
H          5.53325       -2.79383        1.59654
H          4.53553       -1.47464        2.20325
H          3.44405        4.32345       -3.49419
H          3.91381        2.62659       -3.53358
H          2.23892        3.06221       -3.23189
H          2.90670        5.46121       -1.21718
H          1.58234        4.31632       -1.19107
H          2.67701        4.43018        0.19311
H          5.20269        3.83885       -0.18695
H          5.16831        4.84946       -1.63311
H          5.70977        3.18206       -1.73776
H          6.36687        0.00491       -2.92866
H          4.62203        0.31397       -3.11426
H          5.81276        1.59084       -3.46604
