171
-217.84853807
P         -1.61849        0.39948       -0.25474
P          1.61983       -0.37877       -0.25009
C         -0.86828        1.36955       -1.56598
C          0.86914       -1.33865       -1.56802
C         -0.08788        0.75755       -2.54049
C          0.53404        1.56415       -3.51268
C          0.33558        2.93477       -3.48374
C         -0.45263        3.51984       -2.51518
C         -1.04950        2.73069       -1.55203
C          1.04897       -2.70000       -1.56024
C          0.45918       -3.48286       -2.53284
C         -0.32098       -2.89134       -3.50404
C         -0.51849       -1.52040       -3.52617
C          0.09669       -0.72004       -2.54456
Cl         1.62194        0.39576        2.90092
Cl        -1.57591       -0.38566        2.94308
C         -1.36751       -0.92125       -4.59200
C          1.39133        0.97202       -4.57576
H         -0.60224        4.58707       -2.50781
H         -1.66100        3.17811       -0.78514
H          1.65363       -3.15208       -0.79048
H          0.60915       -4.55003       -2.53144
H          0.81155        3.54640       -4.23161
H         -0.79150       -3.49810       -4.25928
C         -3.86680       -3.23992       -1.71878
C         -2.89987       -3.40278       -0.73515
C         -2.21488       -2.27316       -0.30446
C         -2.47542       -1.04898       -0.86760
C         -3.42052       -0.90760       -1.85481
C         -4.14581       -2.00832       -2.29682
H         -4.43621       -4.09656       -2.02878
H         -1.48104       -2.33390        0.48044
H         -3.59450        0.07259       -2.26539
C         -4.50356        2.86863        2.23479
C         -5.00927        1.89116        1.38851
C         -4.10355        1.15930        0.63193
C         -2.75610        1.41242        0.71110
C         -2.27544        2.39094        1.54702
C         -3.14410        3.13342        2.33751
H         -5.18803        3.43053        2.84343
H         -4.44421        0.37176       -0.01536
H         -1.21293        2.55458        1.59643
C          4.45558       -2.92910        2.21315
C          3.08835       -3.12216        2.36193
C          2.23447       -2.35628        1.57757
C          2.73768       -1.41533        0.71253
C          4.09277       -1.22658        0.59415
C          4.98335       -1.98927        1.33819
H          5.12965       -3.52106        2.80464
H          1.16718       -2.47013        1.65528
H          4.45235       -0.46704       -0.07580
C          3.90287        3.23857       -1.71705
C          2.93228        3.41131       -0.73867
C          2.24064        2.28718       -0.30485
C          2.49627        1.05890       -0.86119
C          3.44193        0.90857       -1.84650
C          4.17530        2.00319       -2.29039
H          4.47979        4.09017       -2.02692
H          1.50369        2.35661        0.47629
H          3.60787       -0.07311       -2.25676
Pd        -0.00280        0.05199        1.39145
C         -2.38290       -5.80901       -1.24852
C         -2.65474       -4.78941       -0.12613
C         -3.90034       -5.21436        0.67118
C         -1.44113       -4.77901        0.82142
H         -1.53259       -5.49740       -1.85365
H         -2.16017       -6.79265       -0.83540
H         -3.24237       -5.91509       -1.90899
H         -3.75628       -6.19285        1.12897
H         -4.11190       -4.49739        1.46432
H         -4.77837       -5.27020        0.02846
H         -1.24892       -5.77650        1.21643
H         -0.54316       -4.44835        0.29977
H         -1.61484       -4.11708        1.66948
C         -5.33675       -0.47661       -3.94355
C         -5.27639       -1.88890       -3.32949
C         -6.61876       -2.17933       -2.63397
C         -5.06040       -2.90648       -4.46646
H         -4.39556       -0.21798       -4.42751
H         -6.12351       -0.41518       -4.69530
H         -5.55131        0.27430       -3.18357
H         -6.63521       -3.18505       -2.21517
H         -6.79128       -1.47666       -1.81979
H         -7.44886       -2.09412       -3.33501
H         -5.08353       -3.93021       -4.09552
H         -5.83875       -2.81308       -5.22364
H         -4.09938       -2.75000       -4.95360
C         -7.00541        1.17022        2.72019
C         -6.52088        1.62955        1.33314
C         -6.86939        0.53498        0.30547
C         -7.24914        2.92466        0.92878
H         -8.07411        0.95677        2.70967
H         -6.48261        0.26522        3.02912
H         -6.82476        1.93447        3.47519
H         -7.94582        0.36860        0.26639
H         -6.54257        0.82045       -0.69422
H         -6.39926       -0.41290        0.56697
H         -8.32447        2.76162        0.85853
H         -7.08007        3.71874        1.65503
H         -6.89711        3.27690       -0.04068
C         -3.26923        5.55035        3.00150
C         -2.64597        4.18387        3.33979
C         -1.11278        4.32362        3.29950
C         -3.05691        3.75822        4.76130
H         -2.91524        6.32056        3.68655
H         -3.00543        5.85271        1.98813
H         -4.35598        5.51869        3.06920
H         -0.62448        3.38088        3.54604
H         -0.78142        4.63975        2.31181
H         -0.77156        5.06960        4.01705
H         -2.69674        4.47162        5.50226
H         -4.14000        3.69417        4.85827
H         -2.64114        2.78016        5.00303
C          3.02258       -5.54795        2.98776
C          2.56855       -4.13435        3.39224
C          1.03093       -4.11574        3.47773
C          3.13041       -3.78120        4.78235
H          2.65809       -6.29246        3.69534
H          2.64186       -5.80593        1.99958
H          4.10926       -5.61953        2.95665
H          0.66415       -3.12546        3.74776
H          0.58872       -4.40201        2.52554
H          0.67467       -4.81848        4.23071
H          2.84535       -2.76765        5.06395
H          2.74862       -4.46299        5.54205
H          4.21783       -3.84036        4.79976
C          6.87511       -0.72589        0.19879
C          6.50382       -1.80384        1.23594
C          7.15240       -3.13351        0.80922
C          7.05435       -1.37165        2.60718
H          6.45652        0.24228        0.47316
H          7.95667       -0.60973        0.13067
H          6.50887       -0.99435       -0.79188
H          6.75414       -3.46521       -0.14953
H          8.23213       -3.02569        0.70723
H          6.96404       -3.91932        1.53976
H          8.13138       -1.21098        2.56257
H          6.58694       -0.44257        2.93295
H          6.86084       -2.12741        3.36750
C          3.92173        5.21801        0.68123
C          2.68793        4.80189       -0.13832
C          1.45524        4.80580        0.78493
C          2.44620        5.82065       -1.26863
H          3.77863        6.19996        1.13187
H          4.11066        4.50253        1.48138
H          4.81243        5.26197        0.05519
H          1.60480        4.14934        1.64181
H          1.26190        5.80753        1.16848
H          0.56639        4.47742        0.24664
H          2.22063        6.80653       -0.86245
H          3.32009        5.92056       -1.91083
H          1.60697        5.51271       -1.89104
C          5.11351        2.89907       -4.45186
C          5.30798        1.87197       -3.31943
C          5.34816        0.46265       -3.94202
C          6.65149        2.13690       -2.61625
H          4.15174        2.76153       -4.94328
H          5.15322        3.92045       -4.07596
H          5.89282        2.79604       -5.20682
H          5.55010       -0.29626       -3.18663
H          4.40399        0.22133       -4.42911
H          6.13528        0.39397       -4.69278
H          6.68106        3.13932       -2.19029
H          6.80963        1.42593       -1.80631
H          7.48327        2.04399       -3.31432
H         -2.26094       -1.52242       -4.75812
H          1.71730       -0.03487       -4.31172
H         -0.82464       -0.86310       -5.53634
H         -1.69314        0.08505       -4.32527
H          2.28449        1.57604       -4.73291
H          0.85486        0.91728       -5.52397
