111
-148.54917615
P         -1.58770        2.69866        0.99338
P         -0.51160       -0.22392        0.46985
C         -1.22515        1.60759        2.40190
C         -0.84321        0.30315        2.16403
C         -0.38514        4.09449        0.87445
C          0.33972        4.05794       -0.45424
C         -1.28686        2.07494        3.69948
H         -1.52404        3.10910        3.88264
C         -1.00403        1.22566        4.75515
H         -1.05704        1.59143        5.76762
C         -0.64521       -0.08628        4.51353
H         -0.41888       -0.74572        5.33519
C         -0.55152       -0.54507        3.21227
H         -0.22981       -1.55321        3.00421
Pd        -1.67374        1.29039       -0.84265
Cl        -3.05215        2.72818       -1.86622
Cl        -1.52906       -0.21313       -2.50870
C         -1.27438        5.34063        1.07165
C         -3.18819        3.63348        1.08706
H         -0.37078        4.12468       -1.28076
H          1.04221        4.88914       -0.55123
H          0.90112        3.12904       -0.57742
H         -0.87424        6.17387        0.47571
H         -1.22266        5.67495        2.11835
H         -3.84265        3.19417        0.32228
C         -2.75769        5.06220        0.69458
C         -3.85766        3.55002        2.44239
H          0.32185        3.97478        1.70598
H         -3.42460        5.79326        1.17477
H         -2.88956        5.20590       -0.38811
H         -3.99115        2.51284        2.75746
H         -3.26263        4.05917        3.20099
H         -4.83998        4.02793        2.43175
C         -0.59879       -4.74673       -0.04558
C         -1.69555       -3.97196       -0.50346
C         -1.66334       -2.60203       -0.29985
C         -0.56555       -1.99795        0.25355
C          0.54227       -2.72878        0.59642
C          0.57280       -4.10311        0.42791
O         -0.68450       -6.16451       -0.03442
C         -2.90785       -4.59541       -1.21344
H         -2.49386       -1.98077       -0.58710
H          1.39252       -2.20323        0.99695
C          1.85933       -4.87012        0.77171
C          3.61244        1.34904       -0.66925
C          3.17784        1.42215        0.67889
C          1.93294        0.90690        0.99604
C          1.11528        0.38941        0.02622
C          1.48876        0.41010       -1.29104
C          2.71246        0.92504       -1.68017
O          4.95586        1.67158       -0.99840
C          4.04822        2.02404        1.79262
H          1.58424        0.90067        2.01332
H          0.78666        0.04107       -2.01769
C          3.03586        1.01974       -3.17928
C         -3.96952       -4.97766       -0.17150
C         -3.53104       -3.59009       -2.20915
C         -2.49443       -5.83430       -2.02878
C          3.10250       -3.97732        0.55100
C          1.81756       -5.29720        2.24663
C          2.02714       -6.10393       -0.13357
C         -1.22176       -6.70350        1.16670
H         -4.84688       -5.41240       -0.64973
H         -3.58081       -5.70263        0.53958
H         -4.29075       -4.10117        0.39071
H         -4.30181       -4.06918       -2.81232
H         -4.00161       -2.75288       -1.69609
H         -2.77372       -3.19457       -2.88552
H         -3.33953       -6.23640       -2.58695
H         -1.70828       -5.58063       -2.73914
H         -2.11922       -6.62588       -1.38488
H          3.10009       -3.54985       -0.45146
H          3.14729       -3.16180        1.27140
H          4.01919       -4.55527        0.66614
H          2.72265       -5.83771        2.52254
H          1.73194       -4.42720        2.89736
H          0.96618       -5.94372        2.44555
H          2.97134       -6.61046        0.06496
H          1.22820       -6.82396        0.02527
H          2.01165       -5.81399       -1.18365
H         -0.49059       -7.36632        1.62911
H         -1.47826       -5.90317        1.86195
H         -2.11346       -7.28709        0.93842
C          5.83626        0.55493       -0.99442
C          4.95931        0.93113        2.37124
C          4.89400        3.19341        1.25701
C          3.17124        2.58716        2.93404
C          1.74592        1.26186       -3.99726
C          3.97714        2.20221       -3.47183
C          3.67467       -0.29703       -3.64535
H          4.36715        0.10903        2.77281
H          5.61798        0.52297        1.60865
H          5.57983        1.32536        3.17561
H          4.25616        3.95251        0.80522
H          5.46558        3.66264        2.05736
H          5.60023        2.85779        0.50141
H          3.78188        3.11642        3.66518
H          2.43378        3.28850        2.54605
H          2.64681        1.79659        3.46882
H          1.08603        0.39600       -3.97851
H          1.19603        2.11903       -3.60942
H          1.98174        1.46061       -5.04236
H          4.94326        2.06958       -2.99167
H          4.15290        2.30786       -4.54206
H          3.54737        3.13380       -3.10500
H          4.59634       -0.50107       -3.10544
H          3.90742       -0.26304       -4.70934
H          2.99852       -1.13437       -3.47405
H          6.66192        0.74531       -0.30885
H          5.30628       -0.34681       -0.68483
H          6.24955        0.40907       -1.99215
