45
-71.81603580
C          2.28854        1.26145        2.44832
P          1.51970        0.88628        0.83812
P         -1.01635        0.16272       -0.91661
C         -0.36556       -0.34137       -2.54511
Cl         1.45614       -1.97523        2.24986
H          2.99036        2.08401        2.34488
H         -0.52871       -1.40447       -2.69744
Cl        -1.29663       -2.67041        0.48538
C          0.45984        2.21017        0.21975
C         -0.62875        1.88927       -0.56242
C         -1.42991        2.88510       -1.08157
C         -1.13494        4.21105       -0.81722
C         -0.03972        4.53336       -0.03919
C          0.76225        3.53125        0.47828
H         -2.28064        2.61767       -1.68780
H         -1.75916        4.99150       -1.22020
H          0.19271        5.56599        0.16298
H          1.62605        3.77178        1.07648
Pd         0.14021       -0.96668        0.73808
H          0.70066       -0.14003       -2.59453
H          2.82093        0.38783        2.81348
H         -0.86565        0.21405       -3.33336
C         -5.46118       -0.60795       -0.33213
C         -4.72664        0.03810        0.64235
C         -3.37681        0.27070        0.44619
C         -2.77375       -0.14130       -0.72037
C         -3.50093       -0.78873       -1.69315
C         -4.85058       -1.02207       -1.49948
H         -6.51212       -0.79235       -0.17994
H         -5.20141        0.35760        1.55544
H         -2.78729        0.77020        1.19933
H         -3.01272       -1.11455       -2.59710
H         -5.42336       -1.53023       -2.25779
C          4.51262       -0.34463       -2.35074
C          3.81628        0.84094       -2.48495
C          2.91469        1.22494       -1.50877
C          2.72215        0.42351       -0.40730
C          3.40435       -0.76349       -0.27409
C          4.30735       -1.14969       -1.24725
H          5.21485       -0.64452       -3.11136
H          3.97291        1.46534       -3.34916
H          2.35676        2.14265       -1.60235
H          3.20024       -1.39198        0.57823
H          4.84317       -2.07923       -1.14699
H          1.52263        1.53416        3.16872
