64
-97.20743381
Cl        -1.52638       -1.42234       -2.59428
Cl         1.69594       -1.53435       -2.85154
P          1.93575       -0.61817        0.28932
C          2.18895       -2.29146        1.04020
C          3.70472       -0.15137       -0.03104
P         -1.27202       -0.13680        0.36418
C          1.23448        0.58541        1.47023
C         -0.19258        0.82974        1.48623
C         -0.45049        1.93785        2.39465
C          0.83322        2.39229        2.90228
C          1.87523        1.52998        2.37133
H         -1.42053        2.39163        2.60275
H          0.98452        3.21344        3.60687
Pd         0.22364       -1.00408       -1.25574
H          2.94699        1.60983        2.56192
C         -4.90951        2.38654       -0.72374
C         -4.18077        1.77779       -1.72590
C         -3.08937        0.99424       -1.40291
C         -2.71944        0.83460       -0.08681
C         -3.45809        1.42169        0.91564
C         -4.55460        2.20349        0.59808
H         -5.76262        2.99640       -0.97282
H         -4.46662        1.90497       -2.75720
H         -2.53865        0.47995       -2.17160
H         -3.18395        1.25298        1.94453
H         -5.13077        2.66711        1.38195
C         -2.70899       -3.95537        2.36208
C         -2.34090       -2.87098        3.13497
C         -1.90840       -1.70618        2.52649
C         -1.84499       -1.63846        1.15400
C         -2.21619       -2.71281        0.38038
C         -2.64913       -3.87835        0.98421
H         -3.04583       -4.86325        2.83540
H         -2.38960       -2.93120        4.20983
H         -1.61544       -0.85042        3.11381
H         -2.16279       -2.62844       -0.69308
H         -2.93866       -4.72279        0.38059
C          4.04274       -0.13459       -1.50521
H          3.84899        0.84615        0.40447
C          4.49120       -1.21732        0.75732
H          4.71259       -0.84788        1.76935
C          3.69735       -2.54729        0.85740
H          5.46839       -1.38331        0.28088
C          1.74552       -2.28840        2.48696
H          1.59089       -3.00242        0.45374
H          4.07084       -3.16099        1.68985
H          3.86882       -3.14293       -0.05104
H          1.89449       -3.26422        2.95525
H          2.31367       -1.55331        3.06050
H          0.68917       -2.02852        2.57776
H          3.88834       -1.12188       -1.94287
H          3.41728        0.56976       -2.05589
H          5.08622        0.14049       -1.67381
Fe         0.79972        2.46409        0.86175
C          2.08486        3.18180       -0.49754
C          1.34266        4.27390        0.11214
C         -0.06948        4.08353       -0.17099
C         -0.19737        2.83532       -0.89911
C          1.12789        2.29395       -1.13107
H          3.17195        3.07043       -0.50793
H          1.77810        5.12297        0.64446
H         -0.88719        4.73670        0.13950
H         -1.13175        2.40838       -1.26356
H          1.36076        1.40148       -1.71495
