111
-148.55814941
P         -2.35510        2.34347        0.31286
P         -0.05717        0.17215        0.54031
C         -1.65805        1.94129        1.93360
C         -0.66640        0.99003        2.02636
C         -2.54966        4.16778        0.08369
C         -1.50962        4.70342       -0.87645
C         -2.11832        2.57208        3.07136
H         -2.90104        3.30892        2.99174
C         -1.57630        2.24896        4.30349
H         -1.93393        2.74081        5.19332
C         -0.57901        1.29666        4.39396
H         -0.15635        1.04585        5.35293
C         -0.12292        0.66405        3.25108
H          0.65645       -0.08004        3.30337
Pd        -1.08234        1.23171       -1.24758
Cl        -2.43946        2.01528       -2.85104
Cl         0.34335        0.19360       -2.63396
C         -4.00372        4.29963       -0.40740
C         -4.11313        1.79773        0.12964
H         -1.59919        4.22076       -1.85141
H         -1.62283        5.77937       -1.02884
H         -0.49705        4.51630       -0.51019
H         -4.00449        4.30605       -1.50615
H         -4.42411        5.27114       -0.10598
H         -4.17404        1.29692       -0.84579
C         -4.89023        3.12724        0.10150
C         -4.51387        0.85616        1.24539
H         -2.43524        4.62247        1.07611
H         -5.24548        3.35117        1.11673
H         -5.79807        3.02647       -0.51248
H         -3.85918       -0.01762        1.28073
H         -4.44368        1.35218        2.21502
H         -5.54255        0.50807        1.12572
C         -1.27859       -4.21370        0.39158
C         -0.15039       -3.82826        1.16044
C          0.21201       -2.49105        1.17190
C         -0.53985       -1.55119        0.51634
C         -1.69664       -1.90347       -0.12954
C         -2.11177       -3.22324       -0.18765
O         -1.55328       -5.59134        0.18046
C          0.68405       -4.84292        1.95875
H          1.09561       -2.16351        1.69175
H         -2.27183       -1.12968       -0.60679
C         -3.42361       -3.55853       -0.91536
C          4.36264        1.00792       -0.15709
C          3.83018       -0.25734       -0.51440
C          2.48304       -0.48919       -0.29189
C          1.69745        0.44742        0.32576
C          2.22837        1.63376        0.76096
C          3.56889        1.92844        0.57398
O          5.67275        1.37109       -0.56792
C          4.67232       -1.35590       -1.18098
H          2.01863       -1.39961       -0.62845
H          1.57046        2.33866        1.24011
C          4.12663        3.24830        1.12893
C          1.36871       -4.16129        3.16509
C         -0.20800       -5.96439        2.52175
C          1.77341       -5.43829        1.05450
C         -4.43545       -2.39718       -0.78580
C         -3.12818       -3.78388       -2.40619
C         -4.09727       -4.80329       -0.30987
C         -0.93691       -6.13630       -0.97957
H          1.85290       -4.90021        3.80320
H          2.13918       -3.46031        2.84700
H          0.64077       -3.62216        3.77088
H          0.36942       -6.65175        3.13946
H         -1.00751       -5.54805        3.13365
H         -0.66591       -6.54438        1.72410
H          2.39416       -6.14503        1.60466
H          1.34092       -5.96259        0.20641
H          2.42031       -4.65389        0.66446
H         -4.10456       -1.50906       -1.32192
H         -5.40196       -2.67871       -1.20308
H         -4.58835       -2.13344        0.26001
H         -2.42585       -4.60135       -2.55031
H         -4.03969       -4.02113       -2.95407
H         -2.69000       -2.89030       -2.85033
H         -4.27065       -4.66454        0.75675
H         -5.05711       -5.00020       -0.78678
H         -3.48137       -5.69005       -0.43405
H         -0.34048       -7.00474       -0.70015
H         -1.70151       -6.46319       -1.68383
H         -0.29814       -5.39186       -1.45656
C          5.72245        2.00940       -1.83793
C          6.14147       -1.28959       -0.72587
C          4.14567       -2.75513       -0.78949
C          4.58098       -1.20451       -2.70703
C          5.60864        3.10432        1.51992
C          3.96131        4.35324        0.07454
C          3.36305        3.66739        2.40625
H          6.61305       -0.36126       -1.03761
H          6.20976       -1.35032        0.35977
H          6.72006       -2.11050       -1.14879
H          4.81091       -3.53620       -1.15691
H          4.08109       -2.85248        0.29390
H          3.16128       -2.94947       -1.21250
H          4.95937       -0.23758       -3.03016
H          5.15774       -1.97873       -3.21225
H          3.54609       -1.28173       -3.03972
H          6.22848        2.88717        0.65364
H          5.98535        4.02106        1.97286
H          5.73946        2.29351        2.23578
H          4.33564        5.30679        0.44610
H          4.50254        4.11236       -0.83722
H          2.91132        4.48146       -0.18774
H          3.35018        2.85622        3.13380
H          2.33385        3.94846        2.18792
H          3.83687        4.52972        2.87473
H          6.33332        1.41989       -2.52135
H          4.71768        2.11596       -2.24890
H          6.17988        2.99328       -1.73481
