171
-217.83735624
P         -1.68011        0.70242        0.19021
P          1.51130       -0.20023       -0.25037
C         -0.87477        1.89615       -0.90203
C          0.68472       -0.76721       -1.75061
C         -0.15679        1.55506       -2.04237
C          0.51973        2.56934       -2.74588
C          0.41561        3.88037       -2.31326
C         -0.31072        4.20251       -1.18718
C         -0.94258        3.20142       -0.47494
C          0.79934       -2.07359       -2.15925
C          0.16745       -2.50378       -3.30881
C         -0.59146       -1.61754       -4.04369
C         -0.74026       -0.30072       -3.64060
C         -0.06966        0.14025       -2.48329
Cl         2.04269        1.08282        2.70761
Cl        -1.07294        0.30381        3.45160
C         -1.58982        0.62761       -4.43647
C          1.36521        2.26657       -3.93339
H         -0.37632        5.22630       -0.85687
H         -1.49029        3.43425        0.42642
H          1.38265       -2.76475       -1.57737
H          0.26287       -3.52927       -3.62652
H          0.92250        4.65246       -2.86716
H         -1.07569       -1.94544       -4.94763
C         -2.78539       -3.47171       -1.19311
C         -3.40292       -2.37377       -1.77874
C         -3.01169       -1.10805       -1.35901
C         -2.04608       -0.96022       -0.39395
C         -1.45884       -2.06064        0.18730
C         -1.82258       -3.34374       -0.19891
H         -3.08407       -4.45241       -1.51202
H         -3.46931       -0.22481       -1.76941
H         -0.72342       -1.92366        0.95975
C         -5.63834        2.53337        1.42956
C         -4.85984        1.91956        2.40458
C         -3.64637        1.37220        2.01515
C         -3.23345        1.43599        0.71011
C         -4.01408        2.04393       -0.24172
C         -5.23580        2.60933        0.10051
H         -6.57870        2.96539        1.71257
H         -3.00341        0.90427        2.73833
H         -3.66027        2.08779       -1.25865
C          3.74051       -3.74800        1.55249
C          2.86412       -3.04455        2.36614
C          2.19295       -1.96287        1.81412
C          2.39939       -1.58955        0.50642
C          3.29054       -2.28937       -0.27212
C          3.96382       -3.39668        0.22856
H          4.26707       -4.59009        1.96263
H          1.51004       -1.40177        2.42199
H          3.44606       -1.97881       -1.28937
C          4.48130        3.02174       -1.41345
C          4.51658        1.80210       -2.07922
C          3.60430        0.82784       -1.69384
C          2.70109        1.06975       -0.68826
C          2.67307        2.28597       -0.05342
C          3.56803        3.28887       -0.40156
H          5.18615        3.78690       -1.67883
H          3.59083       -0.12479       -2.19287
H          1.94513        2.44725        0.72107
Pd         0.17765        0.47904        1.59486
C         -5.11775       -1.24647       -3.28348
C         -4.51969       -2.58584       -2.81138
C         -5.64795       -3.41843       -2.17358
C         -3.95528       -3.33027       -4.03383
H         -5.54939       -0.69717       -2.44726
H         -4.36035       -0.62095       -3.75394
H         -5.90949       -1.41135       -4.01413
H         -6.03985       -2.91927       -1.28752
H         -6.47148       -3.55997       -2.87329
H         -5.29390       -4.40390       -1.87351
H         -3.16579       -2.74857       -4.50651
H         -3.53734       -4.29599       -3.75201
H         -4.73314       -3.50610       -4.77669
C         -1.43647       -4.42064        2.03153
C         -1.20835       -4.55916        0.51414
C          0.29964       -4.62426        0.22258
C         -1.85045       -5.87979        0.04713
H         -0.93146       -3.54206        2.43010
H         -2.49912       -4.32439        2.25314
H         -1.05941       -5.29300        2.56455
H          0.79872       -3.71546        0.55147
H          0.76356       -5.46462        0.73852
H          0.48125       -4.74496       -0.84478
H         -2.92427       -5.88085        0.23356
H         -1.68232       -6.04378       -1.01711
H         -1.42134       -6.72760        0.58112
C         -4.23531        2.55572        4.74727
C         -5.28125        1.83215        3.87844
C         -5.36289        0.35149        4.29462
C         -6.65559        2.48500        4.12028
H         -4.51512        2.52695        5.80011
H         -3.25326        2.09405        4.65132
H         -4.14400        3.60014        4.44991
H         -6.07945       -0.18430        3.67241
H         -4.39701       -0.14197        4.19285
H         -5.67811        0.25486        5.33335
H         -6.93930        2.41065        5.17004
H         -6.63933        3.54267        3.85792
H         -7.43183        1.99395        3.53366
C         -5.26744        4.47739       -1.56803
C         -6.07181        3.29969       -0.98658
C         -7.40119        3.84204       -0.42771
C         -6.38906        2.28844       -2.10413
H         -4.33677        4.13605       -2.02017
H         -5.83899        4.99989       -2.33489
H         -5.01544        5.19416       -0.78671
H         -7.22629        4.58380        0.35135
H         -7.98368        4.32213       -1.21400
H         -8.00842        3.03838       -0.01148
H         -7.00400        2.74426       -2.87993
H         -5.47857        1.92105       -2.57605
H         -6.93033        1.43106       -1.70459
C          1.64165       -2.56539        4.54877
C          2.67215       -3.46102        3.83141
C          4.01768       -3.34035        4.56959
C          2.17644       -4.91732        3.88835
H          1.51389       -2.87639        5.58535
H          1.96283       -1.52400        4.55543
H          0.66651       -2.62149        4.06628
H          4.77055       -3.99300        4.12914
H          4.39139       -2.31774        4.52081
H          3.91273       -3.61223        5.61974
H          2.89754       -5.60026        3.44092
H          2.01261       -5.23365        4.91832
H          1.23610       -5.02446        3.34947
C          4.45119       -5.69925       -0.63797
C          4.91987       -4.23177       -0.63451
C          6.34056       -4.13811       -0.05045
C          4.95327       -3.73396       -2.09310
H          5.09579       -6.31291       -1.26705
H          4.46448       -6.12402        0.36494
H          3.43354       -5.77652       -1.02071
H          7.04758       -4.71239       -0.64890
H          6.67936       -3.10241       -0.02837
H          6.37455       -4.52267        0.96830
H          3.96252       -3.77805       -2.54534
H          5.31439       -2.70796       -2.15009
H          5.61968       -4.34982       -2.69687
C          6.32802        2.74011       -3.60164
C          5.56473        1.47831       -3.15432
C          4.88301        0.86671       -4.39424
C          6.57036        0.46995       -2.57135
H          7.02893        2.50429       -4.40236
H          5.64097        3.49991       -3.97410
H          6.90350        3.16613       -2.78023
H          5.61590        0.64843       -5.17083
H          4.37295       -0.06526       -4.15489
H          4.14995        1.55542       -4.81219
H          6.06895       -0.44613       -2.26207
H          7.33203        0.20654       -3.30499
H          7.07080        0.88626       -1.69729
C          3.37126        5.77401       -0.70346
C          3.59077        4.64436        0.31889
C          4.95512        4.82535        1.00875
C          2.48716        4.73542        1.39178
H          4.15093        5.77871       -1.46414
H          2.41282        5.65604       -1.20708
H          3.37644        6.74816       -0.21481
H          4.99709        5.77089        1.54907
H          5.13413        4.02050        1.72145
H          5.76892        4.81821        0.28460
H          2.51049        5.70432        1.89008
H          1.49870        4.61565        0.94969
H          2.61823        3.96902        2.15540
H         -2.04057        1.39154       -3.80082
H          0.88132        2.59804       -4.85311
H         -2.39981        0.09163       -4.93316
H         -1.00334        1.13018       -5.20639
H          1.56603        1.19805       -4.02073
H          2.32655        2.77710       -3.85844
