87
-129.18789119
P         -1.63375       -0.36135       -0.30391
P          1.69760        0.40860       -0.01022
C         -1.30556        0.91733       -1.52461
C          1.51991       -0.68421       -1.43320
C         -0.25400        0.78643       -2.42554
C         -0.00487        1.83493       -3.33272
C         -0.81765        2.95589       -3.31179
C         -1.85784        3.06397       -2.41373
C         -2.09688        2.04012       -1.51858
C          2.29653       -1.81772       -1.45322
C          2.16509       -2.73694       -2.47512
C          1.24089       -2.51821       -3.47343
C          0.44228       -1.38747       -3.47136
C          0.58699       -0.44152       -2.43809
Cl         1.10123        0.52021        3.18245
Cl        -1.39584       -1.37196        2.77235
H         -2.47754        3.94562       -2.40513
H         -2.90573        2.11756       -0.81100
H          3.00975       -1.98742       -0.66370
H          2.77658       -3.62428       -2.48684
H         -0.62311        3.75416       -4.00782
H          1.12710       -3.23607       -4.26799
C         -1.84550       -4.48726       -2.18502
C         -1.00221       -4.27647       -1.10266
C         -0.96278       -3.01089       -0.53040
C         -1.74526       -1.99533       -1.02867
C         -2.58689       -2.21402       -2.09371
C         -2.63882       -3.46785       -2.67426
H         -1.87360       -5.46032       -2.64501
C         -0.11880       -5.36112       -0.59568
H         -0.30994       -2.82083        0.30482
H         -3.18488       -1.40069       -2.47412
H         -3.29076       -3.64579       -3.51372
C         -5.33308        0.67580        2.14113
C         -5.34714       -0.42946        1.31318
C         -4.22721       -0.74795        0.56845
C         -3.10518        0.04217        0.65364
C         -3.08741        1.14150        1.48104
C         -4.20148        1.47374        2.24127
H         -6.20463        0.92493        2.72208
H         -6.22897       -1.04574        1.24973
H         -4.22079       -1.61289       -0.07429
H         -2.19901        1.74754        1.54640
C         -4.17068        2.66909        3.12740
C          5.40263       -0.63802        2.42072
C          5.35939        0.54427        1.70855
C          4.23645        0.86270        0.96826
C          3.16690       -0.00153        0.94538
C          3.20742       -1.17943        1.65565
C          4.33042       -1.51917        2.40017
H          6.27202       -0.88344        3.00658
H          6.19751        1.22130        1.73397
H          4.18539        1.78656        0.41590
H          2.35393       -1.83737        1.64846
C          4.35294       -2.77566        3.19714
C          1.45897        4.82517       -1.04210
C          2.37654        4.01969       -1.68810
C          2.45906        2.67614       -1.37204
C          1.62892        2.15500       -0.40781
C          0.72649        2.95803        0.25064
C          0.61559        4.30518       -0.06978
H          1.39011        5.87049       -1.29060
H          3.02278        4.43548       -2.44365
H          3.15567        2.02815       -1.88038
H          0.10021        2.53831        1.01919
C         -0.36851        5.16813        0.63807
Pd        -0.04844       -0.21344        1.39228
C          1.11050        1.76171       -4.31693
C         -0.54822       -1.19606       -4.56715
H          1.65031        2.70850       -4.36420
H          1.82975        0.98704       -4.04896
H          0.73321        1.54090       -5.31613
H         -0.05591       -0.86774       -5.48328
H         -1.07287       -2.12759       -4.78391
H         -1.29925       -0.45128       -4.30174
H         -0.56772       -6.34249       -0.75498
H          0.84552       -5.34394       -1.10548
H          0.06450       -5.24978        0.47403
H         -4.16861        3.58784        2.53905
H         -5.03665        2.69611        3.79014
H         -3.27516        2.66619        3.75065
H          3.88047       -2.62415        4.16864
H          3.81662       -3.57501        2.68359
H          5.37457       -3.11783        3.36806
H         -0.66681        6.01590        0.01969
H         -1.27081        4.60782        0.88842
H          0.05413        5.55769        1.56518
