72
-108.39191212
Cl        -1.89297        0.46780        2.75336
Cl         1.08551       -0.36583        2.70278
P          1.15231       -1.11605       -0.26276
P         -2.28498        0.09332       -0.38618
C         -3.30670       -1.49919       -0.26004
C         -3.70161       -1.73375        1.19882
C         -4.54957       -1.37848       -1.13447
C         -3.32222        1.64913       -0.03927
C         -4.08610        2.06893       -1.30112
C         -1.45239        0.44957       -2.04423
C         -1.49661       -0.67937       -3.05318
C          1.13310        0.24470       -1.47154
C         -0.03692        0.99115       -1.93966
C          0.47376        2.08971       -2.76320
C          1.91826        1.97896       -2.84805
C          2.32327        0.82738       -2.06412
C         -2.45737       -2.68300       -0.70715
H         -4.36939       -0.96393        1.57568
H         -4.22195       -2.68689        1.30638
H         -5.22594       -0.60998       -0.76377
H         -5.10348       -2.31866       -1.14615
C         -4.31940        1.45766        1.09927
H         -4.84051        2.81928       -1.05861
H         -4.59669        1.22526       -1.76299
H         -2.05931        1.26636       -2.44581
H         -2.50460       -1.06216       -3.20795
H         -0.85257       -1.49662       -2.73702
H         -1.12099       -0.34952       -4.02401
H         -0.14375        2.79151       -3.32760
H          2.58084        2.62573       -3.42844
Pd        -0.55851       -0.35446        1.14717
H          3.34364        0.47798       -1.89134
C         -2.31625        2.72599        0.33564
H         -3.43086        2.52126       -2.04486
H         -3.83405        1.08558        1.99880
H         -4.78885        2.40804        1.35722
H         -5.12019        0.77516        0.82065
H         -1.55171        2.82504       -0.43632
H         -2.80504        3.69518        0.45459
H         -1.82827        2.48299        1.27931
H         -2.82469       -1.76464        1.84555
H         -4.29303       -1.13305       -2.16401
H         -2.98466       -3.62312       -0.53633
H         -2.21857       -2.64381       -1.76651
H         -1.52786       -2.72205       -0.14173
C          2.82717       -1.21546        0.41816
C          3.22909       -2.11620        1.37285
C          4.57438       -1.85946        1.63784
C          4.94019       -0.81172        0.82943
O          3.87703       -0.40662        0.07531
H          2.60978       -2.86026        1.84634
H          5.20214       -2.37912        2.34316
H          5.92306       -0.35898        0.78595
C          0.75171       -2.71820       -0.98336
C          0.71827       -3.88338       -0.25757
C          0.37444       -4.90635       -1.14251
C          0.21189       -4.32095       -2.37408
O          0.43595       -2.97624       -2.28925
H          0.90806       -3.98028        0.79919
H          0.25928       -5.95137       -0.90539
H         -0.05735       -4.83544       -3.28817
Fe         1.35540        2.16184       -0.93574
C          3.02170        2.87581       -0.02474
C          2.29769        2.02095        0.89580
C          0.97020        2.57155        1.06243
C          0.87207        3.77263        0.25370
C          2.14584        3.96704       -0.41479
H          4.05809        2.73700       -0.34185
H          2.67925        1.11699        1.37250
H          0.21118        2.17567        1.73858
H          0.01845        4.45238        0.20837
H          2.40555        4.79556       -1.07795
