111
-148.55276404
P         -2.40406        2.36251        0.35985
P         -0.10481        0.19048        0.54281
C         -1.88075        1.74665        1.97791
C         -0.90031        0.78188        2.05052
C         -2.28671        4.20465        0.27017
C         -1.14033        4.62116       -0.62569
C         -2.46589        2.22605        3.13185
H         -3.22150        2.99215        3.06594
C         -2.07750        1.72049        4.36059
H         -2.53469        2.09175        5.26320
C         -1.10924        0.73706        4.43051
H         -0.81141        0.33871        5.38644
C         -0.51917        0.26551        3.27143
H          0.23529       -0.50497        3.30873
Pd        -1.26625        1.13457       -1.22529
Cl        -2.46784        2.20354       -2.79259
Cl        -0.16372       -0.15944       -2.69526
C         -3.68015        4.62230       -0.23648
C         -4.21296        2.13440        0.02776
H         -0.18648        4.23816       -0.25415
H         -1.27858        4.23008       -1.63558
H         -1.06501        5.70869       -0.69920
H         -3.63734        4.73757       -1.32826
H         -3.94922        5.61518        0.15468
H         -4.28253        1.77427       -1.00740
C         -4.76432        3.56842        0.12742
C         -4.85029        1.14253        0.97756
H         -2.12855        4.55423        1.29890
H         -5.11630        3.74250        1.15348
H         -5.65278        3.68183       -0.51225
H         -4.76560        1.48095        2.01105
H         -5.91276        1.00968        0.76120
H         -4.36734        0.16542        0.91283
C         -1.00565       -4.20016       -0.23771
C          0.32848       -3.73153       -0.37221
C          0.57955       -2.39299       -0.12461
C         -0.41301       -1.55419        0.30805
C         -1.67666       -2.02555        0.54951
C         -1.99620       -3.35620        0.33273
O         -1.36420       -5.47615       -0.74314
C          1.51370       -4.61656       -0.79316
H          1.56079       -1.98459       -0.29045
H         -2.42175       -1.33309        0.90378
C         -3.40312       -3.82937        0.73566
C          4.36384        1.08877        0.36592
C          3.64261        1.38209        1.55173
C          2.28889        1.09144        1.58615
C          1.63909        0.60846        0.47990
C          2.31130        0.44181       -0.70235
C          3.66682        0.69764       -0.80485
O          5.78267        1.15509        0.35861
C          4.31053        1.98003        2.80020
H          1.72181        1.23684        2.48768
H          1.74875        0.10605       -1.55521
C          4.36195        0.51339       -2.16273
C          1.88449       -4.30933       -2.25365
C          2.73223       -4.31392        0.10806
C          1.20417       -6.11591       -0.64172
C         -4.43344       -3.28406       -0.26733
C         -3.50869       -5.36289        0.80177
C         -3.73943       -3.29386        2.14554
C         -1.79133       -5.43200       -2.09456
H          2.12030       -3.25334       -2.38059
H          2.75314       -4.88857       -2.56562
H          1.06415       -4.54678       -2.92759
H          3.55672       -4.99094       -0.11418
H          3.10143       -3.29960       -0.03426
H          2.47247       -4.43480        1.15932
H          2.08402       -6.72230       -0.85550
H          0.87465       -6.33964        0.37230
H          0.41699       -6.42706       -1.32435
H         -5.44422       -3.57826        0.01403
H         -4.39972       -2.19588       -0.30813
H         -4.24291       -3.65833       -1.27114
H         -4.48149       -5.67366        1.18209
H         -3.38220       -5.81030       -0.18111
H         -2.74049       -5.77292        1.45646
H         -4.70027       -3.67750        2.48770
H         -2.97984       -3.60046        2.86409
H         -3.80014       -2.20708        2.16351
H         -2.65822       -4.78096       -2.19221
H         -0.99325       -5.04705       -2.72660
H         -2.05663       -6.43774       -2.42110
C          6.42203       -0.05930        0.73140
C          4.80284        0.84298        3.70819
C          5.48456        2.89878        2.41548
C          3.30529        2.84516        3.59464
C          4.87402       -0.93041       -2.27913
C          3.37550        0.77889       -3.32322
C          5.52685        1.50611       -2.32659
H          5.27374        1.23801        4.60801
H          3.97240        0.20661        4.01318
H          5.52903        0.21591        3.19664
H          5.15152        3.68238        1.73573
H          5.91538        3.37416        3.29633
H          6.27768        2.34374        1.92087
H          3.80627        3.37397        4.40520
H          2.83839        3.58825        2.94865
H          2.51988        2.24066        4.04587
H          5.59097       -1.15975       -1.49468
H          4.05071       -1.63862       -2.19218
H          5.36137       -1.09578       -3.23961
H          3.89537        0.77879       -4.28088
H          2.60345        0.01302       -3.37989
H          2.88982        1.74724       -3.20621
H          5.98076        1.41836       -3.31335
H          6.30585        1.32871       -1.58925
H          5.17758        2.53073       -2.20361
H          7.07208       -0.39292       -0.07728
H          7.03773        0.10735        1.61507
H          5.68064       -0.83051        0.94445
