111
-148.55032418
P         -2.72434        2.00635       -0.30056
P          0.07745        0.60582        0.26486
C         -1.86099        2.30038        1.26765
C         -0.63206        1.71869        1.49313
C         -3.64972        3.51048       -0.85456
C         -3.23658        3.92512       -2.24946
C         -2.43524        3.09190        2.24184
H         -3.40119        3.53638        2.06600
C         -1.77389        3.29951        3.44013
H         -2.22260        3.91667        4.20132
C         -0.54208        2.71464        3.66293
H         -0.02882        2.87327        4.59705
C          0.02929        1.91850        2.68661
H          0.98383        1.44270        2.84859
Pd        -1.16914        0.97519       -1.65991
Cl        -2.65059        0.95532       -3.33627
Cl         0.58585        0.04959       -2.72727
C         -5.12544        3.07257       -0.74073
C         -4.11058        0.78991       -0.16223
H         -3.47001        3.13873       -2.96853
H         -3.75892        4.82939       -2.57084
H         -2.16222        4.11566       -2.30630
H         -5.71724        3.57291       -1.52108
H         -5.54589        3.41770        0.21530
H         -3.81324       -0.09889       -0.73583
C         -5.28132        1.52852       -0.84254
C         -4.36782        0.42664        1.28386
H         -3.41564        4.30876       -0.13745
H         -6.23186        1.20351       -0.39468
H         -5.33723        1.23922       -1.90243
H         -5.17591       -0.30288        1.37720
H         -3.47453        0.00536        1.74987
H         -4.65156        1.31038        1.85830
C         -1.16864       -3.69441        1.11014
C         -0.47566       -3.37021       -0.08389
C         -0.15117       -2.04445       -0.31002
C         -0.41250       -1.07947        0.62502
C         -0.98694       -1.40250        1.82591
C         -1.34979       -2.70777        2.11346
O         -1.70697       -4.99608        1.29341
C         -0.08723       -4.41677       -1.13951
H          0.30129       -1.73508       -1.23596
H         -1.14644       -0.61530        2.54107
C         -1.94197       -3.04139        3.49205
C          4.62139        0.83870        0.07319
C          3.84222        1.66454       -0.77739
C          2.46252        1.60848       -0.66466
C          1.86069        0.71516        0.18142
C          2.60671       -0.16057        0.92670
C          3.99032       -0.14960        0.87052
O          6.02814        1.01969        0.14921
C          4.46966        2.60557       -1.81815
H          1.83358        2.25381       -1.25337
H          2.08645       -0.86380        1.55420
C          4.78083       -1.19278        1.67567
C         -1.20984       -4.52552       -2.18248
C          1.21639       -4.00104       -1.86027
C          0.17877       -5.78837       -0.49348
C         -3.47530       -2.98041        3.42321
C         -1.48868       -4.43742        3.95661
C         -1.46058       -2.03015        4.55707
C         -3.01746       -5.16231        0.76681
H         -0.96003       -5.25701       -2.95049
H         -2.14827       -4.82642       -1.72304
H         -1.37436       -3.56550       -2.67142
H          1.56745       -4.79794       -2.51536
H          1.07143       -3.11846       -2.48132
H          2.00589       -3.78712       -1.14041
H         -0.71672       -6.18851       -0.02532
H          0.51430       -6.51253       -1.23543
H          0.94815       -5.70757        0.27373
H         -3.80958       -1.98675        3.12789
H         -3.86675       -3.69043        2.69942
H         -3.91847       -3.21006        4.39189
H         -1.85549       -4.65521        4.95934
H         -1.86101       -5.21499        3.29382
H         -0.40122       -4.50273        3.97131
H         -0.37337       -1.95551        4.55856
H         -1.87409       -1.03733        4.38455
H         -1.77581       -2.33881        5.55355
H         -3.39675       -4.21436        0.38297
H         -3.00151       -5.89902       -0.03593
H         -3.67956       -5.52990        1.55072
C          6.43815        1.97122        1.12295
C          3.52957        2.77261       -3.03428
C          4.70524        3.98448       -1.18431
C          5.79505        2.03402       -2.35411
C          5.09115       -0.62998        3.07070
C          3.96056       -2.49340        1.83882
C          6.08660       -1.57334        0.95449
H          2.62834        3.32591       -2.77494
H          4.02409        3.32379       -3.83373
H          3.23285        1.80166       -3.43025
H          5.37984        3.91732       -0.33409
H          5.13998        4.67628       -1.90535
H          3.76709        4.41110       -0.83017
H          6.20461        2.66575       -3.14191
H          6.54291        1.96210       -1.56838
H          5.64381        1.03579       -2.76360
H          5.64332       -1.35360        3.66982
H          5.68741        0.27701        3.00558
H          4.17098       -0.38450        3.60051
H          3.09350       -2.34647        2.48121
H          3.61361       -2.85684        0.87190
H          4.56528       -3.27773        2.29345
H          6.61595       -2.36033        1.49105
H          6.75759       -0.72162        0.87403
H          5.87780       -1.93068       -0.05335
H          7.10203        1.49330        1.84314
H          6.98677        2.77823        0.63767
H          5.57158        2.38132        1.64311
