171
-217.84184502
P         -1.60581        0.32877       -0.42965
P          1.61629       -0.37976       -0.36630
C         -0.92060        1.25314       -1.80205
C          0.95935       -1.40454       -1.68389
C         -0.10142        0.61533       -2.72611
C          0.48680        1.38499       -3.74786
C          0.19214        2.73576       -3.83520
C         -0.65623        3.33878       -2.93103
C         -1.20371        2.59282       -1.90605
C          1.23845       -2.74984       -1.66510
C          0.68246       -3.58901       -2.60978
C         -0.17229       -3.07168       -3.55932
C         -0.46513       -1.71845       -3.59652
C          0.13435       -0.85506       -2.65892
Cl         1.53802        0.40600        2.82893
Cl        -1.58343       -0.38599        2.83380
C         -1.40933       -1.20986       -4.62806
C          1.39502        0.76436       -4.75004
H         -0.88728        4.38778       -3.01989
H         -1.86051        3.05606       -1.18757
H          1.89637       -3.14789       -0.90994
H          0.90660       -4.64318       -2.59608
H          0.63327        3.31659       -4.62761
H         -0.62557       -3.72334       -4.28727
C         -3.99952       -3.24297       -1.82235
C         -2.93227       -3.44948       -0.95645
C         -2.20784       -2.33967       -0.53943
C         -2.53944       -1.08811       -0.99335
C         -3.59089       -0.90014       -1.85634
C         -4.35220       -1.98037       -2.28531
H         -4.57481       -4.09503       -2.13172
H         -1.37979       -2.43892        0.14103
H         -3.82537        0.09913       -2.18446
C         -4.11707        2.85132        2.38955
C         -4.71195        1.76965        1.75215
C         -3.93969        1.03412        0.86141
C         -2.63384        1.38124        0.61633
C         -2.06462        2.45654        1.25419
C         -2.79451        3.21138        2.16230
H         -4.69968        3.40998        3.09758
H         -4.34235        0.16432        0.37397
H         -1.02787        2.68554        1.07278
C          4.21529       -2.69331        2.54898
C          2.89914       -3.09439        2.35605
C          2.14130       -2.40167        1.42197
C          2.67607       -1.34299        0.72983
C          3.97486       -0.95208        0.94298
C          4.77569       -1.62768        1.85564
H          4.82106       -3.20808        3.27064
H          1.11235       -2.67189        1.25301
H          4.35058       -0.09810        0.40830
C          3.93092        3.27021       -1.69939
C          2.87895        3.42920       -0.80465
C          2.15672        2.29896       -0.44485
C          2.49237        1.06794       -0.95014
C          3.54017        0.92504       -1.82634
C          4.28611        2.03013       -2.21883
H          4.49490        4.13468       -1.99137
H          1.33146        2.37365        0.24245
H          3.78804       -0.05891       -2.18862
Pd        -0.02494        0.00146        1.26319
C         -2.36331       -5.78646       -1.67835
C         -2.60683       -4.86709       -0.46704
C         -3.79018       -5.39932        0.36076
C         -1.34454       -4.88295        0.41547
H         -1.55125       -5.40308       -2.29487
H         -2.09587       -6.79272       -1.35633
H         -3.25084       -5.86341       -2.30500
H         -3.98449       -4.75018        1.21441
H         -4.69996       -5.44727       -0.23668
H         -3.58387       -6.40093        0.73759
H         -1.48421       -4.27835        1.31121
H         -1.10892       -5.89754        0.73633
H         -0.48455       -4.49870       -0.13177
C         -6.58258       -0.85498       -2.44942
C         -5.56810       -1.74119       -3.19415
C         -6.26278       -3.06213       -3.57770
C         -5.12427       -1.03497       -4.48833
H         -6.15082        0.11426       -2.20245
H         -7.46954       -0.67952       -3.05795
H         -6.89905       -1.33114       -1.52169
H         -7.11428       -2.87497       -4.23189
H         -5.57888       -3.72499       -4.10761
H         -6.63492       -3.58139       -2.69474
H         -5.98135       -0.81858       -5.12589
H         -4.62209       -0.09202       -4.27579
H         -4.43956       -1.66361       -5.05561
C         -6.23883        0.99213        3.57779
C         -6.15916        1.38594        2.09168
C         -6.64431        0.19492        1.24337
C         -7.08653        2.58468        1.81855
H         -5.57007        0.15806        3.78973
H         -5.95158        1.82199        4.22244
H         -7.25089        0.69236        3.84914
H         -6.03823       -0.69241        1.42534
H         -7.67711       -0.05729        1.48339
H         -6.60028        0.43402        0.18181
H         -7.01829        2.89358        0.77559
H         -8.12525        2.32910        2.02741
H         -6.82436        3.44050        2.43926
C         -0.94548        3.75449        3.75655
C         -2.09893        4.34755        2.92471
C         -3.06686        5.07510        3.87708
C         -1.54281        5.37187        1.92006
H         -0.21518        3.25414        3.12220
H         -0.42598        4.53175        4.31643
H         -1.32283        3.01900        4.46659
H         -3.90308        5.50936        3.32938
H         -3.46195        4.39429        4.63079
H         -2.55819        5.88485        4.40012
H         -1.05151        6.19777        2.43419
H         -0.81331        4.91270        1.25649
H         -2.34283        5.78312        1.30479
C          1.95149       -5.40135        2.16742
C          2.25762       -4.24834        3.13858
C          0.95197       -3.75613        3.79479
C          3.18809       -4.77185        4.24948
H          1.46978       -6.23154        2.68368
H          1.29071       -5.07298        1.36710
H          2.86790       -5.77266        1.70909
H          0.22190       -3.44302        3.05013
H          0.49517       -4.54328        4.39416
H          1.14708       -2.90448        4.44611
H          3.44694       -3.97694        4.94873
H          2.70387       -5.56713        4.81609
H          4.10846       -5.18039        3.83284
C          6.30656       -0.70791        3.60947
C          6.21905       -1.19746        2.15285
C          6.67270       -0.05594        1.22299
C          7.16665       -2.39398        1.94612
H          6.03782       -1.49927        4.30832
H          7.31636       -0.37642        3.85065
H          5.62693        0.12795        3.77457
H          6.05575        0.83236        1.35745
H          7.70486        0.22637        1.43000
H          6.61630       -0.36374        0.17971
H          8.20282       -2.10484        2.12111
H          6.93159       -3.21118        2.62677
H          7.08990       -2.77348        0.92734
C          3.55310        5.86985       -0.52567
C          2.49276        4.79469       -0.21794
C          2.35640        4.68032        1.31341
C          1.15263        5.23520       -0.82743
H          3.63586        6.04803       -1.59752
H          3.28871        6.81790       -0.05730
H          4.53112        5.57341       -0.14682
H          3.28714        4.32771        1.75716
H          2.11508        5.64613        1.75700
H          1.56868        3.98365        1.59421
H          0.82668        6.18944       -0.41399
H          1.24108        5.34663       -1.90783
H          0.37692        4.49672       -0.63156
C          6.18749        3.18153       -3.46670
C          5.49345        1.84204       -3.15118
C          5.03257        1.21326       -4.47772
C          6.51582        0.91476       -2.46980
H          7.03615        3.02898       -4.13345
H          5.50243        3.87214       -3.95824
H          6.56374        3.65272       -2.55884
H          4.33207        1.87137       -4.98994
H          5.87905        1.04458       -5.14323
H          4.54224        0.25451       -4.31392
H          6.08483       -0.06425       -2.26345
H          7.39143        0.76703       -3.10167
H          6.85074        1.34323       -1.52554
H         -1.81353       -0.23452       -4.35357
H          1.93172       -0.08459       -4.32408
H         -2.24934       -1.89478       -4.74658
H         -0.91818       -1.11522       -5.59723
H          2.13469        1.48349       -5.10226
H          0.83726        0.41208       -5.61828
