105
-153.06291335
Cl         3.09266        1.67806       -0.83504
Pd         0.88872        1.30174       -1.06184
P         -1.42608        1.17470       -1.33711
N         -1.66774       -0.55389       -1.12952
C         -0.57361       -1.39228       -1.35426
C         -0.20972       -2.33407       -0.35939
C          0.93921       -3.12645       -0.52860
C          1.30332       -4.12939        0.54451
C          2.62715       -4.88669        0.32722
C          2.90025       -5.14040       -1.15788
C          2.94233       -3.80890       -1.91978
C          1.71106       -2.97626       -1.68348
C          1.33599       -2.05016       -2.65101
C          0.21555       -1.27583       -2.49727
H         -0.05267       -0.54644       -3.24055
H          1.94623       -1.93853       -3.53107
H          3.82148       -3.23072       -1.61137
H          3.83238       -5.70607       -1.29797
H          3.45546       -4.30203        0.74144
H          1.31874       -3.61060        1.50942
C         -1.13042       -2.51297        0.79039
C         -1.30307       -1.47638        1.74750
C         -2.27856       -1.63581        2.73052
C         -3.06125       -2.75942        2.78304
C         -2.95071       -3.75885        1.82453
C         -3.91863       -4.91868        1.89822
C         -3.80577       -5.94154        0.75267
C         -3.36153       -5.27067       -0.55101
C         -1.99844       -4.59517       -0.34899
C         -2.00362       -3.62193        0.80589
H         -1.24405       -5.36810       -0.17212
H         -4.10119       -4.51437       -0.84207
H         -4.75501       -6.47690        0.61075
H         -4.93595       -4.50924        1.91883
H         -3.80395       -2.86038        3.55648
H         -2.41242       -0.84780        3.45155
N         -0.66556       -0.22623        1.68102
P          0.88398        0.40158        1.12624
C          2.15218       -0.80348        1.50988
C          1.99537       -1.50557        2.68193
C          2.98677       -2.37339        3.10644
C          4.14289       -2.54234        2.35719
C          4.28839       -1.81636        1.18247
C          3.29841       -0.94725        0.76551
H          3.43587       -0.34484       -0.11511
H          5.19020       -1.92371        0.60429
C          5.22039       -3.45673        2.82688
H          2.86872       -2.92176        4.02530
H          1.09725       -1.36493        3.26297
C          1.21390        1.79543        2.21539
C          0.57467        1.80996        3.43325
C          0.76284        2.86965        4.30256
C          1.59218        3.92680        3.95494
C          2.24811        3.88436        2.73229
C          2.05843        2.82260        1.86932
H          2.57262        2.78631        0.92512
H          2.90980        4.68906        2.46072
C          1.80597        5.06260        4.89370
H          0.26078        2.88353        5.25481
H         -0.07962        0.99464        3.69675
H         -1.24867        0.59841        1.76845
H         -2.07441       -0.63933       -0.20478
C         -2.04422        1.80564       -2.88808
C         -2.03085        3.15506       -3.14571
C         -2.49136        3.62233       -4.36365
C         -2.97091        2.74113       -5.32427
C         -2.96633        1.38056       -5.04564
C         -2.50511        0.91527       -3.82705
H         -2.50125       -0.13876       -3.59900
H         -3.32201        0.68810       -5.78926
C         -3.43872        3.24245       -6.64616
H         -2.47539        4.67733       -4.57759
H         -1.65314        3.83474       -2.39822
C         -2.06265        2.06419        0.08108
C         -1.31181        3.07637        0.63083
C         -1.70247        3.64715        1.82726
C         -2.83829        3.19892        2.48612
C         -3.59903        2.19622        1.90035
C         -3.21222        1.62996        0.69899
H         -3.78450        0.82867        0.25848
H         -4.49126        1.85384        2.39636
C         -3.24980        3.80918        3.78038
H         -1.11102        4.43074        2.26941
H         -0.40858        3.40255        0.13979
Cl         1.01487        1.93615       -3.21942
H          3.06438       -3.98410       -2.99625
H          2.63165       -5.83128        0.88899
H          2.10364       -5.77141       -1.57182
H          0.49261       -4.85693        0.63632
H         -3.32991       -5.99226       -1.37959
H         -1.68848       -4.07742       -1.26521
H         -3.78876       -5.41856        2.86639
H         -3.07425       -6.71348        1.02356
H          5.85940       -2.95865        3.55723
H          4.80139       -4.34731        3.29760
H          5.84978       -3.78526        1.99858
H          2.63102        4.85166        5.57537
H          2.04140        5.98086        4.35387
H          0.91370        5.25093        5.49253
H         -3.85655        4.24657       -6.56125
H         -2.61412        3.28018       -7.35923
H         -4.21342        2.59602       -7.06091
H         -3.89568        4.67232        3.61400
H         -3.79489        3.09359        4.39753
H         -2.38150        4.14286        4.35057
