171
-217.84729447
P         -1.58916        0.37963       -0.33034
P          1.60843       -0.47743       -0.30157
C         -0.85118        1.26116       -1.70896
C          0.86419       -1.47430       -1.59815
C         -0.08436        0.58802       -2.65312
C          0.53427        1.33125       -3.67677
C          0.33531        2.70079       -3.73388
C         -0.44767        3.34570       -2.79984
C         -1.03379        2.62029       -1.78101
C          1.03464       -2.83634       -1.54303
C          0.41730       -3.65318       -2.46938
C         -0.38423       -3.09536       -3.44253
C         -0.57026       -1.72489       -3.51591
C          0.07790       -0.89016       -2.58515
Cl         1.49797        0.19223        2.97133
Cl        -1.62315       -0.49877        2.84280
C         -1.44924       -1.16487       -4.57905
C          1.38033        0.66984       -4.70794
H         -0.60115        4.41047       -2.86377
H         -1.63812        3.11508       -1.03756
H          1.65397       -3.26479       -0.77207
H          0.55788       -4.72087       -2.42707
H          0.80367        3.26355       -4.52373
H         -0.88033       -3.72823       -4.15902
C         -3.94422       -3.28695       -1.53459
C         -2.94949       -3.41188       -0.57324
C         -2.24091       -2.27026       -0.22282
C         -2.50358       -1.07261       -0.83903
C         -3.47391       -0.96963       -1.80559
C         -4.22417       -2.08251       -2.16832
H         -4.53319       -4.15057       -1.78229
H         -1.48561       -2.30255        0.54276
H         -3.64367       -0.01143       -2.26637
C         -4.25898        3.14269        2.08360
C         -4.84673        2.19023        1.26111
C         -4.00765        1.35525        0.53502
C         -2.64398        1.48568        0.62305
C         -2.08072        2.43536        1.44008
C         -2.88139        3.27271        2.20628
H         -4.89427        3.80092        2.64697
H         -4.41339        0.58909       -0.10045
H         -1.00839        2.50898        1.48742
C          4.51566       -2.83468        2.26349
C          3.16774       -3.17569        2.29808
C          2.29558       -2.46675        1.48270
C          2.75496       -1.44684        0.68779
C          4.08606       -1.11410        0.67751
C          4.99774       -1.80562        1.46240
H          5.20476       -3.37749        2.88110
H          1.24343       -2.69641        1.48381
H          4.41705       -0.29617        0.06165
C          3.78589        3.26867       -1.59167
C          2.82686        3.35935       -0.59001
C          2.14628        2.20149       -0.23978
C          2.41955        1.01338       -0.87035
C          3.37199        0.93773       -1.85647
C          4.07998        2.07244       -2.23561
H          4.33807        4.14646       -1.86964
H          1.41166        2.22082        0.54695
H          3.56899       -0.01847       -2.31067
Pd        -0.01080       -0.05452        1.32642
C         -1.43759       -4.71799        0.99570
C         -2.69169       -4.76576        0.10114
C         -2.47485       -5.84704       -0.97450
C         -3.90650       -5.13262        0.97069
H         -1.56608       -4.01565        1.81888
H         -1.23280       -5.69664        1.42942
H         -0.56349       -4.41860        0.41832
H         -2.24226       -6.80909       -0.51825
H         -3.36210       -5.98019       -1.59190
H         -1.64824       -5.57640       -1.63037
H         -3.75286       -6.08686        1.47425
H         -4.07763       -4.37170        1.73198
H         -4.81097       -5.21201        0.36833
C         -6.70775       -2.21598       -2.42754
C         -5.38012       -1.99915       -3.17586
C         -5.21590       -3.08638       -4.25552
C         -5.42772       -0.62514       -3.87273
H         -7.55560       -2.15520       -3.10962
H         -6.73279       -3.19355       -1.94703
H         -6.84183       -1.46065       -1.65384
H         -5.25280       -4.08595       -3.82471
H         -6.01054       -3.01871       -4.99839
H         -4.26371       -2.98079       -4.77323
H         -6.23154       -0.59227       -4.60806
H         -5.60866        0.17458       -3.15503
H         -4.49382       -0.41621       -4.39351
C         -6.81523        0.95380        0.22559
C         -6.37586        2.07642        1.18655
C         -6.96142        3.40758        0.68130
C         -6.92968        1.76173        2.58827
H         -6.45686        1.14178       -0.78628
H         -6.43545       -0.01366        0.55372
H         -7.90203        0.88382        0.18258
H         -8.04681        3.35059        0.60054
H         -6.72019        4.22814        1.35599
H         -6.56207        3.65451       -0.30226
H         -8.01390        1.65354        2.56445
H         -6.50540        0.83282        2.96892
H         -6.68909        2.55376        3.29639
C         -2.94557        4.19476        4.54579
C         -2.28607        4.31981        3.15847
C         -2.54232        5.72290        2.58303
C         -0.76758        4.12321        3.33678
H         -2.49840        4.89263        5.25349
H         -4.01264        4.40804        4.50380
H         -2.81892        3.18682        4.94053
H         -2.08291        5.82542        1.59992
H         -3.60985        5.91245        2.47436
H         -2.12756        6.49365        3.23243
H         -0.36697        4.83008        4.06316
H         -0.54211        3.11732        3.69098
H         -0.23916        4.28588        2.39960
C          1.43195       -3.75395        4.01906
C          2.61609       -4.29490        3.19242
C          3.68394       -4.82310        4.16962
C          2.14154       -5.45708        2.30321
H          1.05334       -4.51392        4.70217
H          1.73831       -2.89059        4.60920
H          0.60548       -3.44392        3.38142
H          4.51872       -5.27581        3.63512
H          4.06903       -4.02024        4.79807
H          3.26402       -5.58557        4.82561
H          1.72461       -6.26522        2.90391
H          1.37475       -5.12683        1.60443
H          2.96996       -5.85986        1.72078
C          6.60012        0.07508        1.87880
C          6.47578       -1.39213        1.42597
C          7.00727       -1.53495       -0.01266
C          7.33710       -2.26739        2.35602
H          6.20139        0.20174        2.88508
H          7.64185        0.39518        1.88444
H          6.05042        0.74263        1.21603
H          6.90487       -2.56260       -0.36069
H          6.46070       -0.89277       -0.70222
H          8.06098       -1.26228       -0.06855
H          8.38272       -1.96244        2.31475
H          7.00919       -2.17985        3.39166
H          7.28782       -3.31629        2.06420
C          2.73286        4.44515        1.66711
C          2.52015        4.66487        0.15677
C          1.05995        5.06906       -0.11192
C          3.43755        5.81507       -0.30017
H          2.52593        5.35661        2.22759
H          2.08166        3.66204        2.05246
H          3.76183        4.14957        1.87069
H          0.37190        4.27492        0.17313
H          0.79152        5.96560        0.44658
H          0.90938        5.27455       -1.17099
H          4.48585        5.57279       -0.12643
H          3.30227        6.02791       -1.36044
H          3.21388        6.72900        0.25003
C          4.93203        3.05336       -4.38786
C          5.20860        2.02457       -3.27534
C          5.33257        0.62936       -3.91858
C          6.54145        2.35911       -2.58033
H          4.90932        4.06878       -3.99449
H          5.70438        3.01327       -5.15577
H          3.97244        2.85946       -4.86533
H          6.12409        0.61821       -4.66778
H          5.57660       -0.12700       -3.17297
H          4.40621        0.33964       -4.41289
H          6.51975        3.35756       -2.14494
H          6.74609        1.64990       -1.77840
H          7.37084        2.31981       -3.28627
H         -2.36572       -1.74783       -4.66866
H          2.23873        1.29106       -4.96423
H         -0.94813       -1.18031       -5.54783
H         -1.73513       -0.13502       -4.36117
H          0.81308        0.49350       -5.62272
H          1.76070       -0.28970       -4.35489
