100
-131.97432479
C         -1.56414        3.86859       -1.32676
C         -2.33114        2.62245       -1.43334
C         -0.17792        3.56286       -1.39411
C         -0.01490        2.08720       -1.50979
C          1.13570        1.51513       -2.27246
C         -1.41169        1.52668       -1.53815
C         -1.83591        0.14290       -2.00145
C         -0.94196       -0.46806       -3.06273
Cl         1.04433       -0.43180        2.73152
Cl        -1.77265       -1.64251        2.24604
C          3.19228        0.52764       -3.90230
C          2.43070        1.59750       -4.32993
C          2.94405       -0.03983       -2.66076
C          1.42869        2.08719       -3.53014
C          1.92980        0.42569       -1.85789
H         -3.41708        2.55431       -1.51541
H          0.63467        4.29140       -1.44629
H          0.01129       -0.77612       -2.63405
H         -1.39536       -1.35055       -3.51998
H         -0.73414        0.24541       -3.86353
H          3.98701        0.14604       -4.52219
H          2.62470        2.04764       -5.29006
H          3.57607       -0.84141       -2.31458
H          0.82944        2.91544       -3.86726
H         -1.99152        4.87449       -1.29956
P          1.85517       -0.28461       -0.20156
H         -2.84411        0.23862       -2.42289
P         -2.04714       -1.00303       -0.56342
H         -2.96293       -2.91015       -1.77042
C         -1.88918       -3.86093       -0.15649
C         -2.05554       -2.74375       -1.19334
C         -3.15782       -4.09123        0.66688
H         -3.39685        0.34105        0.88120
C         -4.83768       -0.21615       -0.61182
C         -3.62779       -0.53138        0.27224
H         -4.56902        0.63309       -1.26335
C         -5.23113       -1.39018       -1.50763
H          3.58073       -1.92552       -0.56369
H          2.74574        0.63661        1.84961
C          3.64395        3.19935        1.30812
C          2.75915        2.27749        0.44945
C          2.99447        0.80115        0.79570
C          4.47388        0.44328        0.58716
C          5.39037        1.35791        1.42677
C          5.13140        2.84577        1.11872
H          3.37191        3.08149        2.36434
H          3.45526        4.25566        1.07049
H          3.00261        2.43056       -0.60931
H          1.69706        2.53281        0.53906
H          4.65525       -0.61202        0.82821
H          4.71697        0.55033       -0.47671
H          5.20750        1.17154        2.49238
H          6.44705        1.10439        1.26235
H          5.42556        3.05817        0.08314
H          5.76739        3.48989        1.74235
C          2.36736       -4.31442       -1.26070
C          1.76981       -2.89445       -1.19937
C          2.54590       -2.01256       -0.21357
C          2.56540       -2.65153        1.18354
C          3.16808       -4.06912        1.13706
C          2.39952       -4.95731        0.13937
H          3.38885       -4.25861       -1.65702
H          1.81294       -4.94333       -1.97094
H          0.72786       -2.94781       -0.86776
H          1.73801       -2.43140       -2.19495
H          3.10095       -2.00970        1.89580
H          1.53960       -2.71136        1.56454
H          4.22030       -4.00607        0.83325
H          3.17723       -4.52182        2.13844
H          1.37220       -5.09753        0.49819
H          2.83538       -5.96546        0.09668
H         -1.08150       -3.55785        0.53360
C         -1.46766       -5.16573       -0.84090
H         -3.88620       -1.32244        0.97199
C         -6.02290        0.22210        0.25454
H         -1.23360       -2.79823       -1.90789
H         -3.41228       -3.22688        1.27640
H         -3.03979       -4.93878        1.34390
H         -4.00717       -4.30644        0.01804
H         -1.29054       -5.96048       -0.11456
H         -2.24733       -5.50965       -1.52129
H         -0.55690       -5.03869       -1.42683
H         -4.46159       -1.61103       -2.24675
H         -5.40013       -2.28944       -0.91480
H         -6.15236       -1.18004       -2.05359
H         -6.33050       -0.58516        0.91997
H         -5.76798        1.08139        0.87696
H         -6.88667        0.49376       -0.35435
Fe        -1.06033        2.64961        0.18274
C         -2.54543        2.87844        1.63061
C         -1.77667        4.09932        1.47577
C         -0.38145        3.79844        1.74093
C         -0.28919        2.39221        2.07575
C         -1.61875        1.82402        1.98600
H         -3.62804        2.78044        1.52484
H         -2.18439        5.08567        1.24263
H          0.44258        4.51608        1.74251
H          0.60277        1.85508        2.40018
H         -1.87161        0.79383        2.24487
Pd        -0.18964       -0.77348        0.85923
