59
-75.79899062
Cl         1.48567        0.63123        2.37921
P          1.62908       -0.13344       -0.77605
P         -1.60526       -0.21338       -0.83170
C          0.65055        0.32801       -2.27588
H          0.40174        1.38989       -2.20140
H          1.28818        0.19973       -3.15605
C         -0.59845       -0.50780       -2.35111
H         -0.35269       -1.56989       -2.41118
H         -1.20968       -0.26558       -3.22576
C          2.44701       -1.76520       -1.10189
H          1.93161       -2.17066       -1.98247
C          3.15094        0.89984       -0.61135
H          3.45468        0.83593        0.44062
C         -2.90275       -1.47560       -0.43331
H         -2.80828       -1.67245        0.64183
C         -2.67613        1.27863       -1.07018
H         -2.71437        1.46036       -2.15126
C          3.90725       -1.39870       -1.45888
H          4.58305       -1.85217       -0.72339
H          4.19139       -1.85842       -2.41722
C          4.14644        0.13850       -1.50424
H          4.03234        0.49986       -2.53634
H          5.18129        0.38543       -1.22052
C         -4.21693       -0.72780       -0.72297
H         -4.53382       -0.95472       -1.75031
H         -5.02297       -1.10523       -0.07534
C         -4.04873        0.80770       -0.56061
H         -4.14148        1.07448        0.50124
H         -4.85767        1.34860       -1.07496
C          2.30341       -2.71986        0.08285
H          2.71208       -3.70131       -0.19577
H          1.23571       -2.89326        0.27078
C          2.93227        2.35584       -1.00294
H          3.90581        2.86257       -1.05966
H          2.52914        2.39442       -2.02303
C         -2.73848       -2.77311       -1.21695
H         -3.65788       -3.36766       -1.12192
H         -2.65878       -2.53414       -2.28547
C         -2.11860        2.50221       -0.35480
H         -2.04540        2.28395        0.71829
H         -1.08606        2.67132       -0.68706
C          2.96321       -2.23699        1.36673
H          2.59622       -1.25210        1.65241
H          4.04624       -2.15629        1.26712
H          2.76784       -2.91109        2.20394
C          2.01662        3.09459       -0.03971
H          2.43265        3.10565        0.96944
H          1.04205        2.61105        0.02716
H          1.85075        4.13146       -0.34055
C         -1.54355       -3.59491       -0.76057
H         -0.61666       -3.03038       -0.85531
H         -1.42965       -4.51337       -1.34087
H         -1.63728       -3.87835        0.28955
C         -2.94937        3.75632       -0.58038
H         -2.52591        4.62492       -0.07088
H         -3.01670        3.99842       -1.64272
H         -3.96944        3.62781       -0.21412
Cl        -1.73309        0.37908        2.25309
Pd        -0.02428        0.01508        0.83539
