171
-217.84507832
P         -1.59407        0.44009       -0.36189
P          1.62232       -0.40575       -0.35297
C         -0.87161        1.37497       -1.71423
C          0.88788       -1.35013       -1.69424
C         -0.07293        0.74899       -2.66445
C          0.55728        1.53817       -3.64565
C          0.33007        2.90417       -3.66431
C         -0.49215        3.50107       -2.73217
C         -1.08290        2.73155       -1.74904
C          1.07594       -2.71099       -1.70630
C          0.47470       -3.48866       -2.67621
C         -0.33019       -2.89442       -3.62447
C         -0.53392       -1.52471       -3.63049
C          0.10058       -0.72901       -2.65708
Cl         1.56346        0.21171        2.88831
Cl        -1.60415       -0.44949        2.77532
C         -1.40595       -0.91998       -4.67489
C          1.45036        0.93074       -4.67046
H         -0.66811        4.56382       -2.76587
H         -1.71240        3.19069       -1.00374
H          1.69762       -3.16951       -0.95472
H          0.63153       -4.55486       -2.68913
H          0.80693        3.50206       -4.42264
H         -0.81187       -3.49728       -4.37580
C         -3.89760       -3.27839       -1.49947
C         -2.93180       -3.36242       -0.50358
C         -2.21655       -2.21318       -0.19809
C         -2.46015       -1.04072       -0.86786
C         -3.41758       -0.97132       -1.84941
C         -4.16179       -2.09710       -2.18316
H         -4.47926       -4.14817       -1.73998
H         -1.48196       -2.22439        0.58888
H         -3.58910       -0.02633       -2.33622
C         -4.36193        2.97170        2.19125
C         -4.90345        1.96833        1.39519
C         -4.03437        1.22215        0.61186
C         -2.68671        1.47866        0.61902
C         -2.16857        2.47707        1.40545
C         -2.99737        3.23991        2.21705
H         -5.01692        3.55082        2.81308
H         -4.41161        0.41971        0.00224
H         -1.10522        2.64840        1.40471
C          4.34689       -2.98316        2.19395
C          2.98327       -3.25292        2.18607
C          2.17478       -2.47107        1.37203
C          2.70863       -1.44556        0.63257
C          4.05413       -1.17867        0.67003
C          4.90547       -1.95182        1.44857
H          4.99719       -3.58434        2.80089
H          1.11413       -2.64864        1.32409
H          4.43302       -0.35415        0.09324
C          3.89109        3.32719       -1.51989
C          2.89971        3.41886       -0.55029
C          2.18987        2.26640       -0.24280
C          2.48035        1.07880       -0.86720
C          3.46787        1.00196       -1.81780
C          4.19593        2.13429       -2.16497
H          4.45670        4.20336       -1.77477
H          1.40911        2.29110        0.49745
H          3.67053        0.04823       -2.27466
Pd         0.00910        0.04680        1.27750
C         -2.88190       -4.37918        1.78706
C         -2.65413       -4.64816        0.28710
C         -1.19545       -5.07750        0.05464
C         -3.57932       -5.79969       -0.14955
H         -2.70407       -5.27837        2.37655
H         -2.21517       -3.60175        2.15764
H         -3.90574       -4.05269        1.96788
H         -0.95650       -5.97558        0.62389
H         -1.02175       -5.28955       -0.99966
H         -0.50337       -4.29283        0.35591
H         -3.36940       -6.70242        0.42407
H         -4.62651       -5.54323        0.00987
H         -3.43751       -6.03866       -1.20339
C         -6.63640       -2.29391       -2.48815
C         -5.29985       -2.04928       -3.21258
C         -5.08167       -3.13857       -4.27967
C         -5.37207       -0.68123       -3.91914
H         -6.65005       -3.27053       -2.00543
H         -6.80106       -1.53930       -1.71907
H         -7.47245       -2.25339       -3.18611
H         -5.09834       -4.13536       -3.84103
H         -5.86111       -3.09939       -5.04046
H         -4.12069       -3.00833       -4.77569
H         -4.43862       -0.45348       -4.43237
H         -6.16885       -0.67195       -4.66276
H         -5.57880        0.11832       -3.20811
C         -6.93006        1.79136       -0.07121
C         -6.40198        1.63590        1.36743
C         -7.21114        2.56739        2.28968
C         -6.60435        0.18283        1.83726
H         -7.99745        1.57680       -0.12057
H         -6.77244        2.80777       -0.43142
H         -6.42266        1.11205       -0.75517
H         -7.10347        3.60888        1.98717
H         -8.27228        2.32116        2.25288
H         -6.88695        2.47199        3.32579
H         -7.66186       -0.08034        1.84880
H         -6.09321       -0.52082        1.18099
H         -6.21018        0.04607        2.84400
C         -1.38201        3.61553        4.09268
C         -2.37230        4.30228        3.13230
C         -3.43786        5.03578        3.96868
C         -1.62485        5.33871        2.27429
H         -0.93176        4.33811        4.77288
H         -1.88862        2.85753        4.68955
H         -0.57666        3.12413        3.54804
H         -4.15580        5.54736        3.32788
H         -3.97913        4.34110        4.61068
H         -2.97608        5.78571        4.61085
H         -1.18780        6.11963        2.89635
H         -0.81822        4.87261        1.71167
H         -2.30129        5.81107        1.56226
C          1.02300       -3.94881        3.61405
C          2.36769       -4.39741        3.00375
C          3.29471       -4.82277        4.15961
C          2.13736       -5.60061        2.07469
H          0.62018       -4.71571        4.27529
H          1.14895       -3.03476        4.19399
H          0.27536       -3.75904        2.84594
H          4.22078       -5.25935        3.78717
H          3.54415       -3.96992        4.79071
H          2.81253       -5.57285        4.78641
H          1.67362       -6.42785        2.61171
H          1.48857       -5.33024        1.24278
H          3.08093       -5.95257        1.65805
C          7.18104       -2.94547        1.08371
C          6.41523       -1.68193        1.51734
C          6.79632       -1.31127        2.96198
C          6.82724       -0.52155        0.58916
H          6.90104       -3.23616        0.07132
H          8.25722       -2.77389        1.10014
H          6.96842       -3.78525        1.74410
H          6.24578       -0.42971        3.28993
H          6.56820       -2.12307        3.65169
H          7.86137       -1.09421        3.04166
H          7.90214       -0.34845        0.63927
H          6.57652       -0.74246       -0.44823
H          6.33128        0.40583        0.87525
C          3.64476        5.80339       -0.06681
C          2.55831        4.73503        0.16358
C          2.43924        4.49183        1.68205
C          1.22099        5.26183       -0.38013
H          3.42099        6.70971        0.49582
H          4.62095        5.44270        0.25705
H          3.70976        6.08127       -1.11843
H          2.25352        5.42565        2.21241
H          1.62023        3.81431        1.91833
H          3.35788        4.05719        2.07533
H          0.92872        6.18456        0.12075
H          1.29452        5.46488       -1.44818
H          0.42834        4.52966       -0.23316
C          5.11512        3.13814       -4.28037
C          5.34924        2.08821       -3.17759
C          5.46830        0.70198       -3.84077
C          6.66911        2.39427       -2.44622
H          4.16634        2.96483       -4.78632
H          5.09570        4.14761       -3.87187
H          5.90693        3.09960       -5.02830
H          5.68609       -0.06959       -3.10256
H          4.54832        0.43381       -4.35915
H          6.27547        0.69182       -4.57309
H          7.51424        2.35750       -3.13338
H          6.64849        3.38507       -1.99359
H          6.84703        1.66877       -1.65289
H         -1.76872        0.06291       -4.37116
H          0.93668        0.83493       -5.62794
H         -2.27642       -1.54814       -4.86543
H         -0.86552       -0.80563       -5.61543
H          1.78952       -0.06068       -4.36715
H          2.33574        1.54707       -4.82734
