111
-148.55501442
P         -2.60445        1.99420        0.15733
P          0.14505        0.44787        0.46452
C         -1.79541        1.90673        1.77832
C         -0.57716        1.27297        1.89737
C         -3.46466        3.61292       -0.09885
C         -2.68408        4.51872       -1.02601
C         -2.39512        2.45863        2.89226
H         -3.35724        2.93497        2.79918
C         -1.76606        2.38147        4.12296
H         -2.23343        2.81302        4.99300
C         -0.54336        1.74854        4.23867
H         -0.05576        1.68473        5.19752
C          0.05012        1.18667        3.12278
H          0.99427        0.67028        3.19973
Pd        -1.01526        1.28582       -1.35786
Cl        -2.42444        1.90935       -2.98703
Cl         0.63153        0.52281       -2.68326
C         -4.84572        3.18257       -0.62695
C         -4.02919        0.82776       -0.03445
H         -1.68641        4.72551       -0.63151
H         -2.55854        4.05657       -2.00591
H         -3.19499        5.47271       -1.17567
H         -4.81332        3.16713       -1.72515
H         -5.60837        3.93132       -0.36379
H         -3.88205        0.32615       -1.00042
C         -5.24359        1.77300       -0.10219
C         -4.07650       -0.18135        1.09239
H         -3.56416        4.07342        0.89217
H         -5.67568        1.86582        0.90369
H         -6.03731        1.33221       -0.72434
H         -4.93425       -0.85077        0.99422
H         -3.17242       -0.79293        1.11274
H         -4.15448        0.32015        2.05876
C         -1.43751       -3.82211        0.33783
C         -0.88708       -3.23667       -0.83070
C         -0.42026       -1.93736       -0.75098
C         -0.40787       -1.25724        0.43757
C         -0.83156       -1.85979        1.59282
C         -1.32062       -3.15547        1.58465
O         -2.14570       -5.05011        0.25235
C         -0.83040       -3.96143       -2.18379
H         -0.07892       -1.42073       -1.63059
H         -0.79897       -1.29084        2.50511
C         -1.75783       -3.79779        2.91026
C          4.67136        0.82315        0.09756
C          4.01638       -0.35750       -0.34119
C          2.63983       -0.42657       -0.21288
C          1.92713        0.58257        0.37925
C          2.56686        1.67518        0.90432
C          3.94472        1.80245        0.82687
O          6.02351        1.05964       -0.26015
C          4.73682       -1.56750       -0.95913
H          2.10184       -1.27512       -0.59841
H          1.97327        2.43941        1.37680
C          4.60024        2.98742        1.55690
C          0.40027       -3.49682       -2.99662
C         -0.69395       -5.48314       -1.99687
C         -2.10033       -3.63513       -2.98436
C         -3.23704       -3.47376        3.16984
C         -1.54524       -5.32229        2.88417
C         -0.91977       -3.24606        4.08600
C         -3.53351       -4.89639       -0.01837
H          0.31084       -2.45766       -3.30920
H          1.31291       -3.60109       -2.41073
H          0.51381       -4.09334       -3.90142
H          0.18153       -5.71807       -1.39241
H         -1.56452       -5.90201       -1.49872
H         -0.58902       -5.98804       -2.95684
H         -2.99373       -3.95771       -2.45469
H         -2.18433       -2.56148       -3.15184
H         -2.08734       -4.12836       -3.95587
H         -3.39024       -2.39686        3.23486
H         -3.86977       -3.85062        2.36984
H         -3.57571       -3.91886        4.10503
H         -0.50697       -5.56102        2.65621
H         -1.79285       -5.76916        3.84671
H         -2.16956       -5.79704        2.13134
H         -1.13742       -3.79015        5.00481
H          0.14609       -3.34577        3.88242
H         -1.13602       -2.19615        4.27820
H         -3.79375       -3.83910       -0.08414
H         -3.78102       -5.38972       -0.95809
H         -4.11447       -5.36496        0.77590
C          6.15212        1.74847       -1.49284
C          6.25573       -1.53232       -0.71795
C          4.20738       -2.86735       -0.31277
C          4.45517       -1.60732       -2.47060
C          6.11986        2.80730        1.71817
C          4.31524        4.28656        0.78572
C          4.00780        3.10378        2.97921
H          6.47380       -1.43278        0.34478
H          6.73213       -2.44326       -1.07958
H          6.71761       -0.69344       -1.23296
H          4.75483       -3.73472       -0.68078
H          4.32203       -2.83219        0.77021
H          3.15441       -3.03228       -0.53444
H          4.83447       -0.71501       -2.96473
H          4.92706       -2.47396       -2.93273
H          3.38472       -1.66318       -2.66593
H          6.62296        2.81719        0.75421
H          6.54855        3.60714        2.32153
H          6.34495        1.85774        2.20247
H          4.74971        5.14560        1.29636
H          4.73202        4.24790       -0.21877
H          3.24317        4.45773        0.69391
H          2.94709        3.34812        2.95820
H          4.50959        3.88759        3.54607
H          4.12705        2.16702        3.52292
H          7.20961        1.88240       -1.72154
H          5.67993        1.17759       -2.29070
H          5.67150        2.72310       -1.42857
