111
-148.55410554
P         -2.38786        2.34360       -0.03355
P         -0.01003        0.32083        0.50457
C         -1.73357        2.14965        1.64479
C         -0.72103        1.24592        1.87726
C         -2.53552        4.13638       -0.46535
C         -1.78058        4.44263       -1.74015
C         -2.24688        2.89167        2.68939
H         -3.02486        3.61257        2.49824
C         -1.75548        2.70991        3.97066
H         -2.15701        3.28768        4.78710
C         -0.75489        1.78627        4.20458
H         -0.37543        1.64072        5.20258
C         -0.23627        1.05102        3.15378
H          0.54625        0.32654        3.31830
Pd        -1.20261        0.89556       -1.40365
Cl        -2.63228        1.52640       -3.01501
Cl        -0.07594       -0.67990       -2.53668
C         -4.05984        4.35324       -0.56858
C         -4.15849        1.81941       -0.19915
H         -1.84639        5.50162       -2.00122
H         -0.72356        4.18074       -1.64910
H         -2.18990        3.87153       -2.57510
H         -4.27041        5.11492       -1.33333
H         -4.44395        4.76839        0.37475
H         -4.16225        0.93881       -0.85605
C         -4.81213        3.03190       -0.89222
C         -4.77123        1.47931        1.14328
H         -2.11004        4.69962        0.37647
H         -5.86813        3.10228       -0.59307
H         -4.82117        2.87732       -1.98122
H         -4.81454        2.36235        1.78240
H         -5.79174        1.10439        1.03505
H         -4.18500        0.72227        1.66887
C         -1.13903       -4.08421        0.68736
C          0.20835       -3.70787        0.92334
C          0.53567       -2.36364        0.86089
C         -0.42779       -1.41292        0.65020
C         -1.74778       -1.76181        0.53029
C         -2.14266       -3.08884        0.57126
O         -1.47570       -5.45654        0.54077
C          1.31367       -4.73696        1.20923
H          1.55616       -2.03966        0.96350
H         -2.46921       -0.97640        0.38250
C         -3.63552       -3.42581        0.43304
C          4.46074        1.09207       -0.01276
C          3.80703        0.12231       -0.81422
C          2.44331       -0.05007       -0.64975
C          1.75135        0.61828        0.32575
C          2.40148        1.47956        1.17186
C          3.76113        1.71467        1.05200
O          5.79847        1.47275       -0.30065
C          4.53746       -0.72048       -1.87133
H          1.88860       -0.69067       -1.31200
H          1.82512        1.98323        1.92681
C          4.45113        2.65880        2.04939
C          2.45125       -4.10317        2.04214
C          0.76461       -5.92106        2.02558
C          1.90391       -5.23669       -0.11807
C         -3.99430       -4.69963        1.21909
C         -4.50970       -2.28552        1.00204
C         -3.97742       -3.60050       -1.05494
C         -1.40500       -5.93529       -0.79660
H          2.05642       -3.62747        2.93951
H          3.17005       -4.86054        2.35413
H          3.00185       -3.35718        1.47085
H          0.00668       -6.46812        1.47027
H          1.55815       -6.62330        2.27978
H          0.31159       -5.57077        2.95244
H          2.71952       -5.93796        0.05652
H          1.15298       -5.74070       -0.72048
H          2.29227       -4.40494       -0.70418
H         -3.47526       -5.56979        0.82578
H         -3.71907       -4.59295        2.26781
H         -5.06357       -4.90338        1.16789
H         -4.20321       -2.02929        2.01586
H         -4.44938       -1.39057        0.38515
H         -5.55849       -2.57996        1.03326
H         -5.03413       -3.83003       -1.18905
H         -3.75661       -2.68852       -1.60940
H         -3.39897       -4.40473       -1.50224
H         -1.05190       -5.14821       -1.46420
H         -0.72623       -6.78671       -0.84337
H         -2.39011       -6.27162       -1.11901
C          5.90689        2.52598       -1.25032
C          3.88812       -2.11824       -1.98739
C          4.44381       -0.01725       -3.23363
C          6.01124       -0.94758       -1.48844
C          3.72429        2.64126        3.41356
C          5.90432        2.22162        2.30894
C          4.42113        4.09219        1.49781
H          3.83892       -2.59923       -1.01125
H          2.88019       -2.06566       -2.39576
H          4.46817       -2.76144       -2.64868
H          4.94724       -0.59606       -4.00750
H          3.40284        0.10936       -3.53023
H          4.90029        0.96940       -3.19982
H          6.08478       -1.40641       -0.50298
H          6.50584       -1.60256       -2.20530
H          6.56467       -0.01267       -1.46192
H          2.73480        3.09165        3.34937
H          3.61499        1.62151        3.78185
H          4.28467        3.20714        4.15745
H          6.50525        2.28706        1.40518
H          6.37451        2.85202        3.06325
H          5.93823        1.19050        2.65910
H          4.94947        4.16079        0.55002
H          4.88834        4.78829        2.19396
H          3.39515        4.41922        1.33040
H          6.42967        2.17006       -2.13778
H          4.91703        2.88639       -1.53309
H          6.48352        3.34517       -0.82081
