111
-148.55562417
P         -2.38327        2.36051        0.59153
P          0.03808        0.30766        0.39702
C         -1.38202        2.01133        2.05467
C         -0.36429        1.08639        1.97697
C         -2.56664        4.17413        0.28895
C         -1.77317        4.58904       -0.93111
C         -1.66708        2.62862        3.25543
H         -2.46362        3.35352        3.30445
C         -0.93657        2.30460        4.38570
H         -1.15823        2.78458        5.32489
C          0.06677        1.35745        4.31316
H          0.62825        1.09606        5.19499
C          0.35050        0.74354        3.10628
H          1.12070       -0.00899        3.03812
Pd        -1.55849        1.07266       -1.12719
Cl        -3.32440        1.63516       -2.38486
Cl        -0.67969       -0.41509       -2.56787
C         -4.09012        4.35419        0.14826
C         -4.16016        1.88583        0.82305
H         -1.88374        5.65663       -1.13589
H         -0.70889        4.37511       -0.80466
H         -2.11350        4.04550       -1.81492
H         -4.35155        4.31717       -0.91828
H         -4.39125        5.35578        0.49099
H         -4.45192        1.35983       -0.09567
C         -4.87408        3.24745        0.90834
C         -4.35999        0.99623        2.03247
H         -2.19741        4.68046        1.19031
H         -4.97390        3.52943        1.96548
H         -5.90339        3.16366        0.52773
H         -3.75297        0.09117        1.96689
H         -4.07155        1.51385        2.94843
H         -5.40508        0.69673        2.13943
C         -0.87950       -4.13471        0.75433
C         -1.93159       -3.19671        0.59430
C         -1.60514       -1.85306        0.52085
C         -0.29779       -1.44407        0.50759
C          0.72625       -2.35316        0.54991
C          0.46965       -3.71129        0.63944
O         -1.17502       -5.48830        1.06677
C         -3.40958       -3.60769        0.50569
H         -2.37476       -1.10281        0.46773
H          1.73600       -1.98308        0.51819
C          1.64775       -4.69797        0.64076
C          4.35151        1.08692       -0.90358
C          3.45393        0.40749       -1.76446
C          2.14987        0.22740       -1.33863
C          1.73686        0.63227       -0.09678
C          2.62695        1.21102        0.77105
C          3.95008        1.41459        0.41631
O          5.63838        1.46340       -1.37273
C          3.86396       -0.10280       -3.15497
H          1.41953       -0.22111       -1.98679
H          2.27267        1.51337        1.73920
C          4.92183        1.99335        1.45770
C         -4.19334       -2.61924       -0.38925
C         -3.56066       -5.00165       -0.12982
C         -4.02742       -3.59602        1.91182
C          2.83238       -4.13493       -0.17690
C          2.11376       -4.93006        2.08586
C          1.25114       -6.03579       -0.00981
C         -1.29077       -5.74762        2.46013
H         -5.20606       -2.97896       -0.56917
H         -4.28155       -1.63717        0.07224
H         -3.70356       -2.49970       -1.35535
H         -3.09973       -5.77050        0.48514
H         -4.61089       -5.26443       -0.25387
H         -3.08565       -5.02905       -1.10992
H         -5.08131       -3.87093        1.87744
H         -3.51883       -4.29533        2.57135
H         -3.95151       -2.60484        2.35822
H          3.27701       -3.26330        0.30108
H          3.62092       -4.88012       -0.27925
H          2.50875       -3.85124       -1.17764
H          2.42518       -3.99231        2.54552
H          1.31522       -5.34774        2.69452
H          2.95748       -5.61892        2.11842
H          0.87384       -5.87428       -1.01903
H          2.10459       -6.71067       -0.07013
H          0.47402       -6.53902        0.56012
H         -2.28880       -6.12574        2.68087
H         -0.56617       -6.50794        2.75124
H         -1.11195       -4.83677        3.03292
C          5.68860        2.75808       -1.95909
C          5.33401       -0.55921       -3.16492
C          3.01044       -1.32485       -3.56464
C          3.64556        1.01134       -4.18978
C          6.34781        1.45260        1.24631
C          4.91619        3.52653        1.36404
C          4.49617        1.58617        2.88732
H          5.50377       -1.32189       -2.40559
H          5.60792       -0.97743       -4.13319
H          6.00821        0.26916       -2.96210
H          3.38281       -1.76420       -4.48971
H          3.04029       -2.09373       -2.79379
H          1.97057       -1.05177       -3.73754
H          3.91674        0.67413       -5.18984
H          2.60011        1.31844       -4.20895
H          4.24380        1.88888       -3.95755
H          6.75419        1.76695        0.28836
H          7.02227        1.81116        2.02350
H          6.35216        0.36334        1.26941
H          5.59008        3.96497        2.09965
H          5.22959        3.86317        0.37888
H          3.91615        3.91964        1.54569
H          3.56481        2.06632        3.18393
H          5.25232        1.88092        3.61462
H          4.36506        0.50678        2.96014
H          6.03766        2.67935       -2.98855
H          4.70153        3.22186       -1.94358
H          6.39274        3.38212       -1.40908
