111
-148.55029638
P         -2.62202        1.95533       -0.49239
P          0.07003        0.51294        0.38500
C         -1.90800        2.28982        1.13851
C         -0.72981        1.67703        1.50658
C         -3.14022        3.51964       -1.33583
C         -2.35346        3.73938       -2.60947
C         -2.53131        3.16237        2.00724
H         -3.44450        3.65016        1.70767
C         -1.97781        3.40828        3.25190
H         -2.46516        4.08772        3.93197
C         -0.80189        2.78482        3.62266
H         -0.37147        2.97477        4.59213
C         -0.17592        1.91624        2.74660
H          0.74203        1.42124        3.02112
Pd        -1.09165        0.64507       -1.62301
Cl        -2.52881        0.53606       -3.33780
Cl         0.58549       -0.55495       -2.51329
C         -4.65627        3.32435       -1.55642
C         -4.23191        1.04376       -0.47162
H         -2.63591        4.67442       -3.09907
H         -1.27894        3.77106       -2.41320
H         -2.53500        2.93018       -3.31832
H         -4.94568        3.77125       -2.51847
H         -5.22046        3.88014       -0.79325
H         -4.02146        0.02070       -0.81251
C         -5.06590        1.82468       -1.50752
C         -4.84646        1.03349        0.91143
H         -2.94635        4.33441       -0.62493
H         -6.13596        1.72068       -1.27470
H         -4.93223        1.37868       -2.50420
H         -5.08256        2.04848        1.23517
H         -5.77502        0.45810        0.93418
H         -4.16326        0.60605        1.64706
C         -1.22967       -3.76965        1.19965
C         -0.00870       -3.52584        0.52022
C          0.36696       -2.21111        0.30119
C         -0.37814       -1.17163        0.79182
C         -1.50518       -1.40263        1.53670
C         -1.93266       -2.69370        1.80076
O         -1.77523       -5.08045        1.23166
C          0.87375       -4.65312       -0.03702
H          1.23197       -1.97725       -0.29502
H         -2.05865       -0.55416        1.89848
C         -3.16634       -2.90500        2.69207
C          4.57299        1.16875        0.16615
C          3.73594        1.64489       -0.87491
C          2.36882        1.45909       -0.75359
C          1.84118        0.75108        0.29400
C          2.65528        0.19158        1.24454
C          4.03007        0.35684        1.19436
O          5.94663        1.52915        0.19643
C          4.28371        2.35387       -2.12385
H          1.69225        1.85920       -1.48913
H          2.19690       -0.38001        2.03302
C          4.90887       -0.31320        2.26252
C          2.36190       -4.23766       -0.01700
C          0.75704       -5.93010        0.81485
C          0.46260       -4.94297       -1.48857
C         -3.25399       -1.79845        3.76768
C         -4.43296       -2.85606        1.82422
C         -3.09112       -4.24754        3.44222
C         -2.64014       -5.36854        0.13976
H          3.00038       -5.07137       -0.30823
H          2.56574       -3.42222       -0.70910
H          2.65849       -3.92326        0.98265
H          1.00184       -5.72048        1.85559
H         -0.25030       -6.33729        0.78534
H          1.43527       -6.70384        0.45594
H         -0.57653       -5.25836       -1.54774
H          0.57301       -4.05094       -2.10485
H          1.07961       -5.73067       -1.91997
H         -3.45989       -0.82295        3.33183
H         -4.05685       -2.00846        4.47403
H         -2.32276       -1.73106        4.32952
H         -4.42899       -3.64649        1.07728
H         -5.32905       -2.97278        2.43314
H         -4.50347       -1.90525        1.29748
H         -3.10827       -5.08887        2.75413
H         -2.17230       -4.31093        4.02420
H         -3.93342       -4.36314        4.12389
H         -2.24524       -6.21023       -0.42890
H         -3.62560       -5.64311        0.51570
H         -2.72941       -4.49950       -0.51343
C          6.21107        2.75325        0.87006
C          5.68625        1.83321       -2.48718
C          3.37440        2.08055       -3.34443
C          4.32836        3.86861       -1.87358
C          4.24632       -1.60712        2.78565
C          6.27668       -0.71537        1.68114
C          5.09771        0.65132        3.44301
H          5.66972        0.75261       -2.62514
H          6.04641        2.28773       -3.40975
H          6.40827        2.05820       -1.70631
H          2.40484        2.56561       -3.24289
H          3.82806        2.46191       -4.25886
H          3.20954        1.01103       -3.47269
H          4.97359        4.11077       -1.03253
H          4.70349        4.39794       -2.74910
H          3.33316        4.25132       -1.64842
H          3.99404       -2.27075        1.95989
H          4.92014       -2.14477        3.45239
H          3.33873       -1.39749        3.34970
H          6.84578        0.15588        1.36645
H          6.87438       -1.24996        2.41901
H          6.14943       -1.36263        0.81401
H          5.70740        0.19792        4.22416
H          4.13553        0.92001        3.87849
H          5.58579        1.57005        3.12700
H          5.28666        3.18017        1.26104
H          6.90519        2.57493        1.69120
H          6.67464        3.45847        0.18054
