111
-148.55557990
P         -1.68698        2.82445        0.06964
P         -0.54058       -0.08587        0.48913
C         -1.63015        2.10834        1.73738
C         -1.20271        0.80847        1.90721
C         -0.53225        4.26130       -0.07273
C          0.55621        3.96650       -1.08366
C         -1.98898        2.86173        2.83688
H         -2.28776        3.88849        2.70341
C         -1.94226        2.30104        4.10165
H         -2.22671        2.88776        4.95983
C         -1.52668        0.99349        4.26644
H         -1.48511        0.55927        5.25178
C         -1.14497        0.24764        3.16576
H         -0.78420       -0.76243        3.27921
Pd        -1.33089        1.04638       -1.36781
Cl        -2.36978        2.20807       -2.97435
Cl        -0.79132       -0.79360       -2.54228
C         -1.45736        5.43079       -0.46771
C         -3.29659        3.66650       -0.29157
H          1.23636        4.81384       -1.19835
H          1.14706        3.09486       -0.79392
H          0.12314        3.75374       -2.06325
H         -1.37542        5.59184       -1.55134
H         -1.10934        6.36693       -0.00575
H         -3.50989        3.46693       -1.34959
C         -2.94382        5.15277       -0.10316
C         -4.42980        3.15876        0.57454
H         -0.11341        4.41629        0.93017
H         -3.12733        5.43276        0.94319
H         -3.61995        5.78453       -0.69947
H         -4.23435        3.34751        1.63043
H         -5.37284        3.64994        0.32420
H         -4.56649        2.08159        0.45460
C         -0.85230       -4.62372        0.61138
C          0.19399       -3.96554        1.31107
C          0.25361       -2.58299        1.24888
C         -0.71578       -1.86117        0.60234
C         -1.79917       -2.48409        0.04119
C         -1.91842       -3.86425        0.05974
O         -0.78771       -6.02346        0.39023
C          1.26707       -4.69235        2.13909
H          1.07963       -2.05136        1.69153
H         -2.54408       -1.87692       -0.44515
C         -3.19519       -4.48239       -0.53408
C          3.79336        1.17002       -0.12970
C          3.24661        0.11204       -0.90040
C          1.92120       -0.23021       -0.69478
C          1.18075        0.36943        0.28809
C          1.73279        1.32261        1.10309
C          3.04904        1.72141        0.94474
O          5.06775        1.70511       -0.45663
C          4.04695       -0.64133       -1.97353
H          1.43191       -0.95089       -1.32664
H          1.11310        1.76539        1.86229
C          3.64195        2.75593        1.91447
C          1.40702       -4.00028        3.51301
C          0.90370       -6.16222        2.41210
C          2.61490       -4.62364        1.40151
C         -4.42990       -3.72020       -0.00439
C         -3.15129       -4.36482       -2.06692
C         -3.37362       -5.95757       -0.13503
C         -0.08281       -6.35904       -0.79366
H          2.11217       -4.53614        4.14790
H          1.76927       -2.97813        3.41675
H          0.44692       -3.97034        4.02748
H         -0.08180       -6.23554        2.87067
H          0.88728       -6.74227        1.49259
H          1.62636       -6.62771        3.08193
H          2.92022       -3.58971        1.24378
H          3.39786       -5.12029        1.97396
H          2.55541       -5.10441        0.42692
H         -4.44353       -2.68569       -0.34310
H         -5.35196       -4.18641       -0.35072
H         -4.44252       -3.71905        1.08517
H         -3.05882       -3.32386       -2.37516
H         -2.30308       -4.90764       -2.47917
H         -4.05859       -4.76884       -2.51510
H         -2.59016       -6.57926       -0.56168
H         -3.33651       -6.06988        0.94795
H         -4.32950       -6.34645       -0.48521
H         -0.57328       -5.91625       -1.65885
H          0.93794       -5.98396       -0.74068
H         -0.06353       -7.44328       -0.90577
C          5.02564        2.75842       -1.41135
C          5.54204       -0.70406       -1.61277
C          3.55252       -2.10174       -2.09230
C          3.85443        0.05397       -3.32972
C          3.43431        4.16926        1.34974
C          2.94790        2.67396        3.29327
C          5.14091        2.49393        2.14749
H          5.68102       -1.15969       -0.63291
H          6.09692       -1.29304       -2.34263
H          5.98633        0.28753       -1.58463
H          4.19681       -2.67554       -2.75798
H          3.55548       -2.59183       -1.11923
H          2.54407       -2.15576       -2.49942
H          2.80068        0.07003       -3.60735
H          4.20307        1.08349       -3.29829
H          4.40298       -0.46420       -4.11579
H          2.37324        4.38492        1.23176
H          3.85739        4.92124        2.01529
H          3.90556        4.27936        0.37632
H          1.91091        3.00325        3.24271
H          2.96661        1.65430        3.67716
H          3.45099        3.31373        4.01796
H          5.55012        3.18565        2.88339
H          5.71134        2.61476        1.22975
H          5.30131        1.47901        2.50968
H          5.58401        2.46976       -2.30159
H          3.99418        2.98254       -1.68639
H          5.49255        3.64933       -0.99160
