45
-71.81722537
C          2.28307        1.25471        2.45128
P          1.50872        0.87777        0.84323
P         -1.03888        0.18556       -0.89754
C         -0.41649       -0.30871       -2.54028
Cl         1.37087       -1.83580        2.37858
H          2.82093        0.38359        2.81413
H         -0.65767       -1.35116       -2.72801
Cl        -1.11551       -2.80131        0.28449
C          0.45516        2.21410        0.23895
C         -0.64414        1.90549       -0.53238
C         -1.44748        2.90856       -1.03374
C         -1.14304        4.23102       -0.76289
C         -0.03650        4.54187        0.00374
C          0.76678        3.53193        0.50390
H         -2.30707        2.64931       -1.63094
H         -1.76877        5.01750       -1.15160
H          0.20299        5.57176        0.21158
H          1.63780        3.76402        1.09476
Pd         0.15130       -1.00104        0.68937
H          0.66194       -0.18525       -2.57910
H          1.51869        1.52330        3.17478
H         -0.86856        0.30759       -3.31205
C         -5.48321       -0.56846       -0.28755
C         -4.66534       -0.29573        0.79101
C         -3.31528       -0.06782        0.59140
C         -2.79383       -0.11802       -0.68131
C         -3.60554       -0.38645       -1.76014
C         -4.95590       -0.61312       -1.56308
H         -6.53477       -0.74769       -0.13349
H         -5.07578       -0.26250        1.78684
H         -2.66335        0.14722        1.42376
H         -3.18312       -0.41875       -2.75130
H         -5.59470       -0.82566       -2.40459
C          4.50719       -0.36351       -2.33555
C          3.77416        0.79566       -2.50200
C          2.87062        1.18530       -1.52987
C          2.71368        0.41598       -0.40026
C          3.43241       -0.74511       -0.23401
C          4.33707       -1.13683       -1.20368
H          5.21076       -0.66788       -3.09317
H          3.90371        1.39487       -3.38822
H          2.28434        2.08222       -1.64795
H          3.25672       -1.34923        0.64213
H          4.90142       -2.04625       -1.07845
H          2.98091        2.08042        2.34591
