59
-75.80034300
Cl         1.64656        0.34226        2.40473
P          1.57566        0.00920       -0.84903
P         -1.59471       -0.23169       -0.71291
C          0.56437       -0.02833       -2.39779
H          0.29148        0.99507       -2.65881
H          1.18595       -0.41141       -3.21310
C         -0.66794       -0.86192       -2.17974
H         -0.40292       -1.90406       -1.98381
H         -1.33499       -0.84806       -3.04703
C          2.91783       -1.26922       -0.92771
H          2.77342       -1.83492       -1.85669
C          2.60078        1.54022       -0.59007
H          2.19775        2.04999        0.29419
C         -3.18884       -1.13208       -0.42935
H         -3.34009       -1.14237        0.65709
C         -2.26568        1.46690       -1.03691
H         -1.95262        1.73834       -2.05198
C          4.20036       -0.41682       -0.98651
H          5.03339       -0.96517       -0.52263
H          4.49718       -0.25739       -2.03376
C          3.99850        0.95762       -0.29604
H          4.77569        1.66863       -0.61229
H          4.13097        0.83951        0.78977
C         -4.21556       -0.20180       -1.09774
H         -4.29637       -0.47035       -2.16044
H         -5.21748       -0.36905       -0.67304
C         -3.79544        1.28665       -0.96561
H         -4.15142        1.67514       -0.00180
H         -4.29143        1.90296       -1.73033
C          2.88205       -2.21709        0.26717
H          2.85732       -1.61966        1.18797
H          3.82641       -2.77734        0.31208
C          2.58720        2.49558       -1.78692
H          3.50026        3.10675       -1.76467
H          2.66214        1.90722       -2.71053
C         -3.19437       -2.55837       -0.96733
H         -4.22579       -2.93763       -0.96501
H         -2.89653       -2.54268       -2.02352
C         -1.72184        2.46625       -0.02162
H         -2.05068        2.16233        0.98150
H         -0.62654        2.39655        0.00891
C          1.71350       -3.18762        0.22976
H          0.76399       -2.65555        0.20554
H          1.69739       -3.84580        1.10143
H          1.75002       -3.81853       -0.66040
C          1.37587        3.41602       -1.82515
H          0.44263        2.85809       -1.88072
H          1.40137        4.08998       -2.68453
H          1.32360        4.03460       -0.92702
C         -2.29815       -3.49372       -0.17278
H         -2.61159       -3.54843        0.87149
H         -1.26619       -3.14573       -0.17593
H         -2.30415       -4.50995       -0.57344
C         -2.14616        3.89913       -0.30718
H         -1.73805        4.60024        0.42439
H         -1.80892        4.22083       -1.29432
H         -3.23245        4.00300       -0.28988
Cl        -1.53811       -0.54137        2.41613
Pd         0.06816       -0.15688        0.89704
