100
-131.98447992
C         -1.64586        3.78050       -1.49511
C         -2.36555        2.50262       -1.48543
C         -0.25314        3.50299       -1.54868
C         -0.04178        2.03181       -1.61404
C          1.13117        1.44347       -2.31872
C         -1.41598        1.42910       -1.57189
C         -1.81792        0.02019       -1.98217
C         -0.85823       -0.69721       -2.90801
Cl         1.00108       -0.49943        2.78975
Cl        -1.86229       -1.77122        2.32186
C          3.25030        0.41619       -3.83372
C          2.51726        1.48294       -4.31515
C          2.94259       -0.12719       -2.59483
C          1.48392        1.99320       -3.57040
C          1.89537        0.35594       -1.84607
H         -3.44936        2.39145       -1.54954
H          0.53681        4.25053       -1.65132
H          0.05179       -0.97381       -2.37664
H         -1.29115       -1.61796       -3.30649
H         -0.57750       -0.06861       -3.75660
H          4.07023        0.01905       -4.40952
H          2.75841        1.91463       -5.27308
H          3.55765       -0.92291       -2.20897
H          0.90654        2.81944       -3.94806
H         -2.10374        4.77272       -1.50447
P          1.74419       -0.30470       -0.16713
H         -2.79070        0.09576       -2.48446
P         -2.14557       -1.00385       -0.49120
H         -3.45219       -3.01489       -0.30858
C         -1.66445       -3.74441       -1.24071
C         -2.72788       -2.66586       -1.04530
C         -1.20321       -4.31381        0.10321
H         -3.19885        0.79240        0.63785
C         -4.88940       -0.04867       -0.38901
C         -3.56565       -0.19775        0.37767
H         -4.64895        0.23977       -1.42676
C         -5.69971       -1.34698       -0.43093
H          3.59667       -1.82039       -0.40565
H          2.52993        0.78461        1.85174
C          3.52482        3.26826        1.17552
C          2.69744        2.29258        0.31931
C          2.85607        0.84670        0.80852
C          4.34138        0.45098        0.75277
C          5.20679        1.41354        1.59279
C          5.01378        2.87587        1.14720
H          3.16011        3.24238        2.20983
H          3.38252        4.30421        0.83730
H          3.04444        2.34852       -0.71988
H          1.64012        2.57511        0.28285
H          4.48490       -0.58248        1.09046
H          4.67307        0.47102       -0.29208
H          4.92972        1.31778        2.65007
H          6.26672        1.12751        1.54110
H          5.40274        2.99957        0.12863
H          5.60813        3.55650        1.77316
C          2.68769       -4.30253       -1.10453
C          1.92037       -2.96491       -1.07943
C          2.55834       -1.98254       -0.09497
C          2.58521       -2.59603        1.31289
C          3.37734       -3.91761        1.31750
C          2.78164       -4.91773        0.30693
H          3.69855       -4.13263       -1.49533
H          2.21620       -5.00543       -1.80563
H          0.89362       -3.14121       -0.75218
H          1.84296       -2.52556       -2.08283
H          2.98453       -1.88258        2.04525
H          1.55643       -2.79281        1.63544
H          4.42325       -3.71470        1.05598
H          3.40537       -4.35045        2.32728
H          1.78222       -5.21868        0.64293
H          3.37219       -5.84464        0.28615
H         -0.80898       -3.27262       -1.75165
C         -2.18456       -4.86811       -2.14267
H         -3.73760       -0.72491        1.31584
C         -5.73383        1.07326        0.22615
H         -3.27134       -2.49803       -1.97709
H         -0.80797       -3.54101        0.76136
H         -0.43475       -5.07619       -0.02864
H         -2.03749       -4.78270        0.62561
H         -1.42499       -5.63488       -2.30350
H         -3.05097       -5.35239       -1.69112
H         -2.49084       -4.49008       -3.11947
H         -5.85883       -1.73506        0.57561
H         -6.68261       -1.18300       -0.87584
H         -5.21194       -2.12448       -1.01563
H         -5.97375        0.84585        1.26527
H         -5.20845        2.02893        0.21144
H         -6.67590        1.20474       -0.30839
Fe        -1.07389        2.62348        0.09659
C         -2.43356        3.03727        1.59668
C         -1.58711        4.18547        1.33198
C         -0.20967        3.78344        1.54499
C         -0.21202        2.39754        1.96955
C         -1.58301        1.93762        2.00635
H         -3.52544        3.03297        1.57729
H         -1.92860        5.18523        1.05311
H          0.66443        4.43502        1.47173
H          0.64771        1.81464        2.29853
H         -1.90395        0.95142        2.34878
Pd        -0.29053       -0.85339        0.96949
