111
-148.55327560
P         -2.55922        1.95398        1.07520
P          0.18584        0.49785        0.46484
C         -1.41306        1.56991        2.43228
C         -0.19453        0.99024        2.15396
C         -3.56159        3.45430        1.50517
C         -3.49409        4.51261        0.42682
C         -1.75630        1.84604        3.74111
H         -2.71820        2.27885        3.96098
C         -0.87245        1.54969        4.76442
H         -1.14122        1.76577        5.78557
C          0.35132        0.97528        4.47978
H          1.03820        0.74178        5.27656
C          0.68905        0.68956        3.16943
H          1.63169        0.22282        2.93079
Pd        -1.31084        1.66558       -0.86268
Cl        -3.01381        2.62180       -1.95939
Cl        -0.03241        1.25308       -2.65976
C         -4.97462        2.87373        1.72376
C         -3.90589        0.69826        0.88431
H         -2.46136        4.79587        0.21123
H         -3.93592        4.14479       -0.49982
H         -4.04078        5.41399        0.71364
H         -5.72714        3.62322        1.43824
H         -5.13994        2.68254        2.79424
H         -3.77269        0.23576       -0.10355
C         -5.18751        1.55502        0.92821
C         -3.82475       -0.34949        1.97286
H         -3.14693        3.85067        2.44158
H         -6.00823        0.96686        1.36414
H         -5.50750        1.79777       -0.09587
H         -3.92907        0.10927        2.95787
H         -4.61316       -1.09884        1.86950
H         -2.86327       -0.86646        1.95115
C         -1.27133       -3.77024       -0.19476
C         -0.98863       -3.32035        1.12041
C         -0.53000       -2.02457        1.28661
C         -0.40699       -1.17586        0.21828
C         -0.76083       -1.57916       -1.04108
C         -1.24455       -2.85357       -1.27671
O         -1.54487       -5.14376       -0.43115
C         -1.13736       -4.22675        2.35234
H         -0.25469       -1.65934        2.26008
H         -0.64231       -0.87580       -1.84656
C         -1.71509       -3.21666       -2.69361
C          4.61213        0.60469       -0.58787
C          4.07146       -0.50603        0.10911
C          2.71716       -0.50067        0.39823
C          1.93214        0.58041        0.09270
C          2.47102        1.70134       -0.48111
C          3.81664        1.75903       -0.80578
O          5.93548        0.54567       -1.10038
C          4.91459       -1.72352        0.51971
H          2.24822       -1.35651        0.85293
H          1.81506        2.52684       -0.69711
C          4.37795        3.04451       -1.43332
C         -2.30898       -5.20958        2.17604
C          0.17309       -4.99697        2.57518
C         -1.43679       -3.39223        3.61872
C         -0.52124       -3.73732       -3.50782
C         -2.83519       -4.27182       -2.65503
C         -2.29534       -1.97249       -3.40621
C         -0.39431       -5.91671       -0.74942
H         -2.13292       -5.89216        1.34831
H         -2.45484       -5.81058        3.07325
H         -3.23429       -4.67092        1.97418
H          0.41326       -5.62245        1.71894
H          1.00392       -4.30789        2.72575
H          0.10401       -5.63980        3.45236
H         -1.65556       -4.04183        4.46594
H         -0.58852       -2.77168        3.90383
H         -2.29991       -2.74587        3.46383
H          0.26135       -2.98139       -3.56910
H         -0.08874       -4.62427       -3.05087
H         -0.82302       -3.99392       -4.52293
H         -3.66864       -3.92373       -2.04574
H         -3.21097       -4.48126       -3.65622
H         -2.48356       -5.20980       -2.23310
H         -2.75065       -2.24807       -4.35703
H         -3.06095       -1.49672       -2.79384
H         -1.52508       -1.23432       -3.62389
H          0.50265       -5.29707       -0.71347
H         -0.29855       -6.73706       -0.03822
H         -0.50203       -6.34245       -1.74681
C          6.02413        0.00763       -2.41396
C          4.34601       -2.37164        1.80327
C          4.88472       -2.76611       -0.60826
C          6.36617       -1.31536        0.82962
C          5.85324        3.25507       -1.04714
C          4.23432        2.96493       -2.96092
C          3.60112        4.28260       -0.93059
H          5.01246       -3.15184        2.17038
H          4.23138       -1.63035        2.59374
H          3.37754       -2.83718        1.62610
H          5.46527       -3.64841       -0.33997
H          3.86223       -3.08368       -0.81194
H          5.29483       -2.36174       -1.53048
H          6.86435       -0.91922       -0.05157
H          6.39189       -0.54664        1.60124
H          6.94670       -2.16814        1.18068
H          6.48380        2.46068       -1.43825
H          6.23055        4.19847       -1.44097
H          5.96784        3.26950        0.03619
H          4.78735        2.12088       -3.36567
H          3.18890        2.84078       -3.24266
H          4.60753        3.87151       -3.43649
H          4.07681        5.20201       -1.27119
H          3.57059        4.30526        0.15843
H          2.57827        4.29583       -1.30395
H          6.47632        0.74200       -3.08033
H          6.65829       -0.87867       -2.40483
H          5.03287       -0.25761       -2.78383
