75
-122.81634366
P          1.89021       -0.55668       -0.01462
C          3.24738       -1.24570       -0.97369
C          4.48505       -1.32890       -0.37695
C          5.55031       -1.87145       -1.07313
C          5.36532       -2.33452       -2.36057
C          4.11922       -2.26018       -2.95053
C          3.05671       -1.71706       -2.25205
H          2.08057       -1.65152       -2.70402
H          3.97408       -2.62220       -3.95511
H          6.19424       -2.75650       -2.90509
H          6.52112       -1.93422       -0.60964
H          4.60981       -0.97603        0.63508
C          1.72378       -1.57590        1.45362
C          1.76676       -1.01252        2.70814
C          1.72467       -1.82300        3.82744
C          1.64001       -3.19344        3.68078
C          1.59276       -3.75418        2.41972
C          1.63728       -2.94067        1.30161
H          1.61901       -3.36329        0.30918
H          1.52287       -4.82337        2.30546
H          1.60341       -3.82627        4.55242
H          1.75392       -1.38461        4.81135
H          1.82823        0.05887        2.80583
C          2.23212        1.15220        0.42989
C          3.39356        1.80488        0.08890
C          3.55990        3.15061        0.38456
C          2.51341        3.83310        1.00317
C          1.33883        3.19436        1.33394
C          1.19336        1.82595        1.05516
O          0.00484        1.14099        1.35881
C         -1.18936        1.81826        1.05907
C         -1.34157        3.18635        1.33565
C         -2.52006        3.81806        1.00562
C         -3.56424        3.12809        0.39148
C         -3.39244        1.78191        0.10136
C         -2.22729        1.13559        0.44181
P         -1.87303       -0.57504        0.00761
C         -1.72540       -1.58030        1.49167
C         -1.58276       -0.99574        2.72905
C         -1.55894       -1.78353        3.86473
C         -1.67431       -3.15483        3.75242
C         -1.80864       -3.73902        2.50852
C         -1.83644       -2.94703        1.37458
H         -1.95945       -3.38672        0.39730
H         -1.89492       -4.80948        2.42020
H         -1.65160       -3.77076        4.63656
H         -1.44382       -1.32748        4.83422
H         -1.47964        0.07416        2.80008
C         -3.20975       -1.28638       -0.96597
C         -4.46985       -1.32934       -0.41361
C         -5.51455       -1.89192       -1.12469
C         -5.28674       -2.41628       -2.38139
C         -4.01803       -2.38449       -2.92510
C         -2.97592       -1.82166       -2.21162
H         -1.98138       -1.79178       -2.62614
H         -3.83915       -2.79568       -3.90501
H         -6.09977       -2.85373       -2.93754
H         -6.50294       -1.92285       -0.69646
H         -4.62810       -0.93232        0.57705
Pd         0.00622       -0.09337       -1.34820
Cl        -1.57646        0.86417       -2.66944
Cl         1.45849        0.86364       -2.79986
H         -4.16600        1.24534       -0.41879
C         -4.81216        3.83325       -0.00431
H         -5.01371        4.67810        0.65548
H         -5.67244        3.16416        0.04125
H         -4.73410        4.21242       -1.02399
H         -2.62691        4.86757        1.21619
S         -0.00342        4.06608        2.09694
H          2.61526        4.88255        1.21650
C          4.80369        3.86384       -0.00972
H          4.16896        1.27236       -0.43301
H          5.01330        4.69342        0.66671
H          5.66409        3.19367        0.01078
H          4.71415        4.26608       -1.01956
