111
-148.55334221
P         -2.27019        2.22146        0.73321
P          0.11626        0.15762        0.45082
C         -1.30922        1.75387        2.19454
C         -0.27487        0.85486        2.06491
C         -2.57401        4.04617        0.73449
C         -2.16187        4.65680       -0.58700
C         -1.60145        2.29399        3.43062
H         -2.40768        3.00306        3.52453
C         -0.85696        1.92362        4.53733
H         -1.08439        2.34452        5.50312
C          0.17542        1.01469        4.40567
H          0.75404        0.72478        5.26724
C          0.46651        0.47691        3.16463
H          1.26860       -0.23442        3.04306
Pd        -1.26339        1.22141       -1.08751
Cl        -2.93309        1.98376       -2.37597
Cl        -0.11334        0.25857       -2.75402
C         -4.08503        4.14767        1.02876
C         -4.01310        1.59712        0.75907
H         -2.73798        4.22272       -1.40598
H         -2.33049        5.73629       -0.60064
H         -1.10472        4.47608       -0.79657
H         -4.49365        5.04604        0.54341
H         -4.24799        4.29403        2.10665
H         -4.11524        0.92724       -0.10502
C         -4.84974        2.87780        0.56092
C         -4.31216        0.85250        2.04249
H         -1.97832        4.46873        1.55506
H         -5.80441        2.77975        1.09788
H         -5.11690        2.98682       -0.50055
H         -3.61442        0.02544        2.19356
H         -4.22394        1.51734        2.90328
H         -5.32612        0.44543        2.04323
C         -1.26037       -4.18175        0.53849
C         -2.16806       -3.14485        0.20435
C         -1.70145       -1.84090        0.20700
C         -0.37698       -1.56293        0.42702
C          0.52619       -2.57063        0.64540
C          0.12266       -3.89619        0.67130
O         -1.74338       -5.49529        0.78091
C         -3.64099       -3.41120       -0.14449
H         -2.37684       -1.01871        0.04567
H          1.55477       -2.30434        0.81477
C          1.17347       -4.99791        0.88200
C          4.38146        1.12218       -0.83155
C          3.71113        0.01882       -1.41851
C          2.41995       -0.26186       -1.00204
C          1.82297        0.46330       -0.00432
C          2.50571        1.46619        0.63470
C          3.80452        1.78989        0.27866
O          5.60301        1.59086       -1.38404
C          4.33104       -0.82663       -2.54177
H          1.84199       -1.03069       -1.48462
H          1.99916        2.01090        1.41253
C          4.54627        2.87785        1.07094
C         -4.16307       -2.34891       -1.13905
C         -3.80988       -4.78168       -0.82537
C         -4.49001       -3.34656        1.13380
C          2.52976       -4.57974        0.27333
C          1.36086       -5.23818        2.38752
C          0.75945       -6.30647        0.18369
C         -2.12603       -5.73045        2.13031
H         -5.15844       -2.60964       -1.49774
H         -4.23853       -1.36686       -0.67631
H         -3.50497       -2.27025       -2.00401
H         -3.53695       -5.59378       -0.15616
H         -4.84270       -4.94180       -1.13368
H         -3.17710       -4.85073       -1.70957
H         -4.39737       -2.37069        1.60928
H         -5.54343       -3.51477        0.91143
H         -4.17516       -4.09703        1.85490
H          2.97060       -3.73774        0.80465
H          3.24591       -5.39970        0.32278
H          2.40901       -4.30436       -0.77363
H          2.10737       -6.01075        2.57002
H          1.68973       -4.32622        2.88527
H          0.43035       -5.55246        2.85457
H          1.53926       -7.06233        0.27355
H         -0.14812       -6.71870        0.61723
H          0.57481       -6.13372       -0.87606
H         -1.99102       -4.82747        2.72708
H         -3.17124       -6.03733        2.16560
H         -1.52075       -6.53483        2.54785
C          5.43625        2.58430       -2.38834
C          3.82515       -2.28392       -2.46690
C          3.92491       -0.23230       -3.89904
C          5.86500       -0.88429       -2.42302
C          6.06392        2.61949        1.08351
C          4.24850        4.25167        0.45145
C          4.08001        2.88881        2.54495
H          2.76016       -2.35586       -2.68143
H          4.34078       -2.91059       -3.19422
H          4.00842       -2.70080       -1.47747
H          4.27998        0.79047       -4.00269
H          4.33567       -0.81751       -4.72126
H          2.84015       -0.21757       -4.00291
H          6.31185        0.09789       -2.55247
H          6.16001       -1.25851       -1.44327
H          6.29197       -1.54169       -3.18001
H          6.58156        3.35457        1.69929
H          6.28126        1.62921        1.48235
H          6.48439        2.67512        0.08255
H          4.58385        4.29936       -0.58183
H          3.17798        4.45544        0.46225
H          4.74909        5.04606        1.00444
H          4.69161        3.56748        3.13906
H          4.16032        1.89469        2.98398
H          3.04800        3.22297        2.64034
H          5.97591        3.48714       -2.10271
H          5.84715        2.22571       -3.33189
H          4.37892        2.81801       -2.51947
