111
-148.55003463
P         -2.34226        2.39157       -0.21610
P         -0.05783        0.32588        0.51725
C         -1.80842        2.21913        1.50552
C         -0.83532        1.29728        1.82252
C         -2.32481        4.16485       -0.73816
C         -1.42840        4.35685       -1.94175
C         -2.37161        2.99521        2.49812
H         -3.11228        3.73425        2.23996
C         -1.97523        2.82554        3.81347
H         -2.41643        3.42917        4.58972
C         -1.01946        1.88019        4.13266
H         -0.71606        1.74240        5.15743
C         -0.44778        1.11303        3.13352
H          0.29672        0.36762        3.36657
Pd        -1.23041        0.77462       -1.43829
Cl        -2.33336        1.46735       -3.26252
Cl        -0.13522       -0.92401       -2.42405
C         -3.81345        4.47328       -1.00391
C         -4.12541        1.97756       -0.51168
H         -1.79393        3.77470       -2.78925
H         -1.39168        5.40383       -2.25233
H         -0.40708        4.02860       -1.73325
H         -3.89565        5.19934       -1.82576
H         -4.25542        4.96906       -0.12719
H         -4.13609        1.05978       -1.11574
C         -4.62368        3.18672       -1.32903
C         -4.87821        1.76236        0.78397
H         -1.94634        4.74053        0.11761
H         -5.69554        3.34368       -1.13903
H         -4.54085        2.96818       -2.40394
H         -4.39665        1.00177        1.40216
H         -4.91637        2.68412        1.36613
H         -5.90880        1.44885        0.60155
C         -1.11711       -4.08446        0.83602
C          0.24878       -3.70419        0.78852
C          0.55102       -2.35600        0.70282
C         -0.43701       -1.40803        0.73080
C         -1.75231       -1.76321        0.87820
C         -2.12387       -3.09446        0.97537
O         -1.47730       -5.45179        0.70253
C          1.39533       -4.72686        0.76967
H          1.56843       -2.02749        0.58710
H         -2.49118       -0.97987        0.89618
C         -3.60699       -3.43937        1.18061
C          4.41768        1.11453        0.07116
C          3.73623        0.29447       -0.86303
C          2.37298        0.11916       -0.70461
C          1.70243        0.64665        0.36728
C          2.37724        1.35748        1.32587
C          3.74074        1.57990        1.22728
O          5.76440        1.49853       -0.16648
C          4.43995       -0.38317       -2.04940
H          1.80076       -0.42555       -1.43421
H          1.81901        1.75034        2.15598
C          4.46099        2.33647        2.35503
C          2.67345       -4.12716        1.39970
C          1.03649       -5.97897        1.58999
C          1.70273       -5.11487       -0.68480
C         -3.77102       -4.75157        1.96862
C         -4.31419       -2.33406        1.99741
C         -4.29497       -3.55051       -0.18865
C         -1.70465       -5.86079       -0.64055
H          2.46517       -3.72583        2.39113
H          3.44724       -4.88762        1.50242
H          3.09056       -3.32922        0.78742
H          0.77819       -5.70646        2.61272
H          0.18743       -6.50502        1.16088
H          1.87262       -6.67691        1.62548
H          1.96600       -4.23475       -1.27059
H          2.53491       -5.81656       -0.73496
H          0.84225       -5.57995       -1.15926
H         -4.82194       -4.96090        2.16673
H         -3.36543       -5.59811        1.42063
H         -3.25083       -4.69257        2.92406
H         -4.39463       -1.40715        1.43246
H         -5.32763       -2.63566        2.26124
H         -3.77430       -2.12832        2.92134
H         -4.20965       -2.61381       -0.73923
H         -3.84310       -4.33146       -0.79532
H         -5.35401       -3.78114       -0.07631
H         -1.53540       -5.02821       -1.32473
H         -1.03226       -6.68096       -0.89158
H         -2.72907       -6.21698       -0.74725
C          5.90121        2.69200       -0.92771
C          3.73904       -1.71327       -2.40978
C          4.38438        0.54689       -3.27058
C          5.90071       -0.72842       -1.70771
C          4.46099        3.84012        2.04109
C          3.74443        2.11671        3.70709
C          5.90491        1.83010        2.52573
H          3.65632       -2.35514       -1.53364
H          2.74020       -1.54973       -2.81114
H          4.30320       -2.25483       -3.16864
H          4.88019        1.49339       -3.06850
H          4.86931        0.08932       -4.13245
H          3.35143        0.76508       -3.54087
H          5.94830       -1.35425       -0.81712
H          6.37799       -1.26648       -2.52636
H          6.48694        0.16681       -1.51713
H          3.44175        4.21287        1.94201
H          4.95150        4.40440        2.83386
H          4.98166        4.04855        1.10970
H          4.32432        2.54249        4.52567
H          2.76595        2.59443        3.72751
H          3.61291        1.05379        3.90815
H          6.50128        2.02534        1.63790
H          5.91590        0.75569        2.70611
H          6.39548        2.32042        3.36620
H          6.48706        3.41832       -0.36452
H          6.42880        2.47674       -1.85666
H          4.92099        3.11260       -1.15560
