111
-148.55095608
P         -2.18906        2.39293        0.96004
P         -0.07830        0.07510        0.56346
C         -1.33544        1.70619        2.39987
C         -0.39217        0.72027        2.21717
C         -2.21816        4.24202        1.06549
C         -1.20165        4.88337        0.14611
C         -1.60300        2.17850        3.66882
H         -2.34736        2.94595        3.80576
C         -0.91670        1.66149        4.75415
H         -1.12530        2.02815        5.74596
C          0.03835        0.68061        4.56704
H          0.57594        0.28116        5.41122
C          0.30306        0.20966        3.29347
H          1.04611       -0.55523        3.12920
Pd        -1.31981        1.36765       -0.91821
Cl        -2.26828        2.93978       -2.20261
Cl        -0.24916        0.31561       -2.59448
C         -3.68638        4.57728        0.74812
C         -4.00621        2.04273        0.92849
H         -1.40406        4.63211       -0.89514
H         -1.21870        5.97240        0.22979
H         -0.18987        4.54145        0.37388
H         -3.78364        4.74455       -0.33348
H         -3.97508        5.52762        1.22245
H         -4.22890        1.70428       -0.09235
C         -4.63706        3.42497        1.18214
C         -4.37750        0.97905        1.93971
H         -1.99302        4.48846        2.11126
H         -4.86207        3.52026        2.25320
H         -5.60764        3.50294        0.66926
H         -4.12195        1.29919        2.95131
H         -5.44901        0.76663        1.92095
H         -3.84251        0.04559        1.74781
C         -1.12828       -4.35571        0.25627
C         -1.33231       -3.66966        1.48090
C         -0.99231       -2.32881        1.54661
C         -0.54703       -1.65404        0.43931
C         -0.47519       -2.28587       -0.77447
C         -0.78263       -3.62779       -0.91008
O         -1.23627       -5.77101        0.20594
C         -1.88641       -4.36188        2.73608
H         -1.06751       -1.79200        2.47505
H         -0.18061       -1.70239       -1.62761
C         -0.70639       -4.27549       -2.30163
C          4.12373        0.99510       -0.90840
C          3.67895       -0.35198       -0.88850
C          2.40102       -0.61246       -0.42464
C          1.60959        0.39165        0.06721
C          2.07561        1.67741        0.15517
C          3.34773        2.00596       -0.28435
O          5.31673        1.33848       -1.59785
C          4.52829       -1.51761       -1.41780
H          1.99565       -1.60748       -0.46676
H          1.41707        2.42992        0.55500
C          3.83724        3.45322       -0.12391
C         -2.86175       -5.49254        2.36117
C         -0.72070       -4.92149        3.56515
C         -2.67556       -3.35792        3.60777
C         -1.03168       -3.24185       -3.40426
C          0.71528       -4.80838       -2.53643
C         -1.73092       -5.41612       -2.43909
C         -0.01971       -6.45374        0.48193
H         -3.66789       -5.11177        1.73497
H         -2.35881       -6.28451        1.81187
H         -3.30503       -5.93907        3.25089
H         -0.04049       -4.12319        3.86127
H         -1.08359       -5.40890        4.46970
H         -0.14771       -5.65071        2.99737
H         -2.02294       -2.60788        4.05215
H         -3.43505       -2.84569        3.01757
H         -3.17828       -3.86974        4.42809
H         -1.98037       -2.74519       -3.20290
H         -0.25730       -2.48057       -3.48549
H         -1.10684       -3.72526       -4.37795
H          1.44239       -3.99853       -2.48687
H          0.98939       -5.54587       -1.78581
H          0.79986       -5.27708       -3.51651
H         -1.72170       -5.83210       -3.44623
H         -1.51744       -6.22673       -1.74684
H         -2.73731       -5.05482       -2.23031
H          0.77912       -5.74022        0.68827
H         -0.15471       -7.10754        1.34341
H          0.25587       -7.07023       -0.37352
C          5.11113        1.67433       -2.96457
C          4.20269       -2.82028       -0.65167
C          4.21677       -1.73174       -2.90699
C          6.03115       -1.24768       -1.22261
C          3.37481        4.27939       -1.33385
C          3.25210        4.08313        1.16072
C          5.36980        3.51521        0.00777
H          4.88518       -3.61942       -0.94013
H          4.29744       -2.67085        0.42352
H          3.19378       -3.17209       -0.86034
H          4.45759       -0.84618       -3.49048
H          4.78863       -2.56710       -3.31016
H          3.15795       -1.94492       -3.05221
H          6.25233       -1.04951       -0.17439
H          6.62732       -2.10302       -1.53958
H          6.35844       -0.38712       -1.80051
H          3.69404        5.31732       -1.24363
H          3.78160        3.88130       -2.26063
H          2.28825        4.26591       -1.41719
H          3.45718        3.45532        2.02744
H          3.69086        5.06340        1.34555
H          2.17521        4.22423        1.08846
H          5.70662        4.53570        0.18847
H          5.86108        3.16255       -0.89540
H          5.70892        2.89421        0.83621
H          4.05417        1.58978       -3.22083
H          5.44803        2.69471       -3.14650
H          5.69284        1.00450       -3.59766
