72
-108.39379567
Cl        -1.97158        0.20053        2.82310
Cl         1.12867       -0.37710        2.77681
P          1.09315       -1.09688       -0.30902
P         -2.23657        0.03382       -0.35049
C         -3.23367       -1.57629       -0.25239
C         -3.60504       -1.86583        1.20207
C         -4.49144       -1.45583       -1.10632
C         -3.31434        1.55463        0.06038
C         -4.08045        2.01348       -1.18787
C         -1.48192        0.46507       -2.03145
C         -1.55039       -0.62301       -3.08455
C          1.09561        0.25288       -1.52335
C         -0.06934        1.01795       -1.96515
C          0.41750        2.08528       -2.84261
C          1.86146        1.98704       -2.92030
C          2.27649        0.85785       -2.10969
C         -2.36910       -2.72967       -0.74026
H         -2.71618       -1.91509        1.83116
H         -4.27009       -1.11431        1.61816
H         -5.17275       -0.70351       -0.71300
H         -5.03289       -2.40304       -1.12710
C         -4.32021        1.30686        1.18151
H         -4.54367        1.17551       -1.70708
H         -3.43779        2.54249       -1.89119
H         -2.11192        1.28908       -2.37699
H         -0.86846       -1.43349       -2.83823
H         -1.23484       -0.24287       -4.05838
H         -2.55335       -1.02903       -3.20522
H         -0.20968        2.77347       -3.41197
H          2.51862        2.62711       -3.51307
Pd        -0.48569       -0.25630        1.21323
H          3.30003        0.51574       -1.94202
C         -2.33385        2.63508        0.48917
H         -4.87352        2.71158       -0.91463
H         -3.83669        0.93194        2.08032
H         -4.82048        2.23716        1.45405
H         -5.09754        0.60807        0.87930
H         -1.55645        2.77233       -0.26378
H         -2.84112        3.59163        0.63039
H         -1.86193        2.36868        1.43490
H         -4.11747       -2.82579        1.28336
H         -4.25643       -1.18829       -2.13490
H         -1.45100       -2.78441       -0.15768
H         -2.88984       -3.68152       -0.62212
H         -2.10984       -2.63735       -1.79127
C          2.76713       -1.18204        0.37856
C          3.17701       -2.07176        1.34039
C          4.52016       -1.80216        1.60289
C          4.87733       -0.75836        0.78577
O          3.81073       -0.36811        0.02879
H          2.56334       -2.81350        1.82461
H          5.15186       -2.31022        2.31312
H          5.85628       -0.29757        0.73865
C          0.73597       -2.69851       -1.05299
C          0.79737       -3.88589       -0.36573
C          0.46399       -4.89803       -1.26682
C          0.21197       -4.28465       -2.46925
O          0.36989       -2.93315       -2.35016
H          1.04377       -4.00665        0.67653
H          0.41468       -5.95448       -1.05937
H         -0.07441       -4.78452       -3.38624
Fe         1.29279        2.17647       -0.95308
C          2.26728        2.08207        0.84732
C          0.95785        2.67847        1.00560
C          0.89109        3.85357        0.15563
C          2.16994        3.99034       -0.51795
C          3.02054        2.89493       -0.08763
H          2.62540        1.18583        1.35676
H          0.20374        2.34721        1.72050
H          0.05296        4.55046        0.08377
H          2.45099        4.78920       -1.20780
H          4.05181        2.71730       -0.40067
