171
-217.84679408
P         -1.63112        0.42643       -0.29873
P          1.61058       -0.39007       -0.37436
C         -0.91566        1.40807       -1.62330
C          0.85896       -1.30855       -1.71999
C         -0.12457        0.81719       -2.60250
C          0.50771        1.64343       -3.55147
C          0.29791        3.01159       -3.50642
C         -0.51158        3.57544       -2.54334
C         -1.11044        2.76779       -1.59697
C          1.06642       -2.66435       -1.78413
C          0.46681       -3.41089       -2.77962
C         -0.35444       -2.79095       -3.69771
C         -0.57696       -1.42474       -3.64907
C          0.05545       -0.65987       -2.65034
Cl         1.67014        0.44014        2.77595
Cl        -1.47190       -0.24378        2.92694
C         -1.45718       -0.78586       -4.66574
C          1.39704        1.07668       -4.60258
H         -0.67144        4.64107       -2.52342
H         -1.73343        3.20184       -0.83206
H          1.70177       -3.13984       -1.05422
H          0.63849       -4.47334       -2.83657
H          0.78135        3.63771       -4.23734
H         -0.83306       -3.37067       -4.46890
C         -3.82255       -3.33426       -1.51884
C         -2.84366       -3.41692       -0.53591
C         -2.15444       -2.25593       -0.21227
C         -2.45375       -1.06994       -0.83542
C         -3.43177       -1.00154       -1.79666
C         -4.13891       -2.14211       -2.15918
H         -4.36900       -4.21795       -1.78897
H         -1.38546       -2.26951        0.54047
H         -3.64487       -0.04765       -2.24848
C         -4.45331        2.84365        2.30261
C         -3.10337        3.17513        2.29466
C         -2.26129        2.44541        1.46648
C         -2.75097        1.41410        0.70451
C         -4.08447        1.09055        0.73646
C         -4.96774        1.80740        1.53310
H         -5.12700        3.39627        2.92995
H         -1.20863        2.66986        1.42951
H         -4.42885        0.26288        0.14278
C          4.29975       -2.97141        2.21193
C          2.93172       -3.21776        2.21502
C          2.13143       -2.44489        1.38437
C          2.67975       -1.45296        0.60943
C          4.03153       -1.21566        0.62813
C          4.87345       -1.98012        1.42538
H          4.94069       -3.55330        2.84712
H          1.06570       -2.59904        1.36363
H          4.42299       -0.41362        0.02870
C          3.92874        3.25839       -1.69341
C          4.22848        2.03383       -2.27740
C          3.48836        0.92692       -1.87773
C          2.50555        1.05681       -0.92754
C          2.22212        2.27398       -0.36066
C          2.92394        3.40867       -0.74620
H          4.50933        4.11894       -1.97009
H          3.67721       -0.04801       -2.29409
H          1.45479        2.32738        0.39179
Pd         0.03288        0.05133        1.28511
C         -3.58853       -5.79924       -0.04281
C         -2.49173       -4.73657        0.16597
C         -2.33819       -4.50159        1.68265
C         -1.17032       -5.26593       -0.41256
H         -4.55711       -5.43074        0.29482
H         -3.67235       -6.08190       -1.09176
H         -3.36140       -6.70466        0.51993
H         -1.51150       -3.82904        1.90453
H         -3.24597       -4.06482        2.09817
H         -2.14529       -5.43887        2.20430
H         -0.86625       -6.18891        0.08078
H         -1.27226       -5.46939       -1.47823
H         -0.37362       -4.53403       -0.28828
C         -5.42724       -0.71515       -3.82753
C         -5.28004       -2.10872       -3.18591
C         -6.60133       -2.46088       -2.47793
C         -5.00357       -3.13430       -4.30154
H         -5.66955        0.03859       -3.07861
H         -4.51007       -0.41621       -4.33367
H         -6.22829       -0.71249       -4.56660
H         -6.80833       -1.75401       -1.67496
H         -7.43787       -2.43352       -3.17596
H         -6.56188       -3.45855       -2.04201
H         -4.96352       -4.14922       -3.90825
H         -5.78550       -3.10418       -5.06018
H         -4.05237       -2.92888       -4.79053
C         -2.09095        5.46065        2.22746
C         -2.52132        4.30829        3.15097
C         -1.30107        3.78515        3.93559
C         -3.55150        4.84301        4.16443
H         -1.35525        5.12324        1.49934
H         -2.94583        5.85368        1.67749
H         -1.65040        6.27746        2.79885
H         -0.90108        4.55573        4.59420
H         -1.57726        2.92680        4.54755
H         -0.49828        3.47363        3.26914
H         -4.40854        5.28755        3.65913
H         -3.90839        4.04511        4.81547
H         -3.10878        5.61355        4.79550
C         -6.82712        0.31821        0.63752
C         -6.46362        1.46825        1.59826
C         -7.28703        2.70823        1.20383
C         -6.82180        1.03905        3.03247
H         -7.89339        0.09725        0.68376
H         -6.58849        0.57972       -0.39326
H         -6.29091       -0.59475        0.89615
H         -7.02405        3.04075        0.19978
H         -8.35434        2.48799        1.21770
H         -7.10993        3.53705        1.88811
H         -6.23094        0.17400        3.33305
H         -6.62747        1.83997        3.74488
H         -7.87571        0.77211        3.10872
C          3.31317       -4.98252        4.01135
C          2.27631       -4.26467        3.12659
C          1.56035       -5.31558        2.26082
C          1.25435       -3.56303        4.04239
H          4.04853       -5.51061        3.40462
H          3.83708       -4.27494        4.65369
H          2.82926       -5.71663        4.65547
H          2.26309       -5.80531        1.58699
H          1.09359       -6.08146        2.87998
H          0.78150       -4.85625        1.65586
H          0.46742       -3.08030        3.46443
H          0.78173       -4.27482        4.71876
H          1.74095       -2.79538        4.64354
C          6.81825       -0.62393        0.50081
C          6.38749       -1.73235        1.48221
C          7.13269       -3.02711        1.10884
C          6.77456       -1.30048        2.90811
H          6.55781       -0.88671       -0.52434
H          6.34262        0.32538        0.74671
H          7.89662       -0.47045        0.53887
H          6.90720       -3.83133        1.80807
H          6.84745       -3.36068        0.11124
H          8.21148       -2.87218        1.11729
H          7.84285       -1.09649        2.97819
H          6.23778       -0.39612        3.19412
H          6.53378       -2.07548        3.63486
C          5.21587        2.96177       -4.40089
C          5.39142        1.92539       -3.27415
C          5.46304        0.52351       -3.91070
C          6.71138        2.19511       -2.52949
H          5.22874        3.97943       -4.01319
H          6.01856        2.87827       -5.13342
H          4.27082        2.81431       -4.92159
H          5.65231       -0.24155       -3.15807
H          4.53446        0.27889       -4.42581
H          6.27077        0.47100       -4.64059
H          6.71932        3.19331       -2.09280
H          6.85211        1.47701       -1.72226
H          7.56392        2.11683       -3.20389
C          3.86038        5.20662        0.72109
C          2.64780        4.78499       -0.12680
C          1.39922        4.75511        0.77576
C          2.40990        5.81699       -1.24543
H          4.76096        5.27630        0.11180
H          3.69327        6.17801        1.18612
H          4.04721        4.48032        1.51193
H          0.52548        4.42480        0.21498
H          1.54093        4.08469        1.62305
H          1.18521        5.74660        1.17445
H          2.16669        6.79418       -0.82860
H          3.29175        5.93555       -1.87350
H          1.58345        5.50790       -1.88423
H         -1.86219        0.15966       -4.30240
H          0.90262        1.07875       -5.57495
H         -2.29949       -1.43180       -4.91391
H         -0.90769       -0.58664       -5.58665
H          1.68694        0.05076       -4.37193
H          2.31154        1.66321       -4.69110
