111
-148.55349091
P         -2.52204        2.00928        0.86920
P          0.17046        0.40777        0.43744
C         -1.41166        1.72768        2.27350
C         -0.21648        1.07284        2.07010
C         -3.34732        3.66300        0.97217
C         -2.73356        4.65461        0.00810
C         -1.75705        2.15286        3.54043
H         -2.70210        2.64594        3.69848
C         -0.89636        1.92770        4.60093
H         -1.16504        2.25953        5.59055
C          0.30365        1.27506        4.39367
H          0.97189        1.09630        5.21992
C          0.64206        0.84096        3.12470
H          1.56553        0.31130        2.94972
Pd        -1.32362        1.43185       -1.01554
Cl        -2.96775        2.30946       -2.26010
Cl        -0.02591        0.75993       -2.72311
C         -4.82393        3.32265        0.69838
C         -4.00431        0.90071        0.85099
H         -3.22274        5.62930        0.07256
H         -1.66855        4.79481        0.20776
H         -2.82988        4.30678       -1.02104
H         -5.01659        3.43193       -0.37786
H         -5.48446        4.05112        1.19289
H         -4.07913        0.51096       -0.17315
C         -5.16580        1.87038        1.13971
C         -3.86080       -0.23010        1.84632
H         -3.22344        4.00831        2.00636
H         -5.37876        1.85601        2.21746
H         -6.08788        1.51890        0.65231
H         -2.99751       -0.85578        1.61051
H         -3.71806        0.15853        2.85632
H         -4.74728       -0.86844        1.85723
C         -1.28658       -3.91028        0.24104
C         -1.06512       -3.29693        1.50064
C         -0.58384       -1.99868        1.52311
C         -0.39108       -1.29448        0.36351
C         -0.70075       -1.85020       -0.84933
C         -1.18553       -3.14188       -0.94635
O         -1.58353       -5.29739        0.16797
C         -1.32529       -4.02314        2.83011
H         -0.35829       -1.51332        2.45589
H         -0.56343       -1.24673       -1.72870
C         -1.58471       -3.68645       -2.32683
C          4.56627        0.82137       -0.69187
C          3.96605        1.78464        0.15851
C          2.63346        1.62072        0.50063
C          1.89594        0.58148       -0.00493
C          2.44596       -0.29384       -0.90399
C          3.76498       -0.17353       -1.30767
O          5.97125        0.83583       -0.90010
C          4.75048        2.97499        0.73227
H          2.15069        2.30312        1.17844
H          1.82189       -1.07629       -1.29840
C          4.29618       -1.11410       -2.40095
C         -2.51252       -4.99508        2.70439
C         -0.05891       -4.78406        3.25037
C         -1.68564       -3.01571        3.94623
C         -2.06625       -2.54018       -3.24654
C         -0.36857       -4.35948       -2.98053
C         -2.74855       -4.68726       -2.21105
C         -0.43826       -6.13101        0.04361
H         -2.30162       -5.78877        1.99192
H         -2.73878       -5.46349        3.66193
H         -3.40424       -4.46921        2.36470
H          0.22174       -5.52462        2.50551
H          0.78020       -4.09893        3.36917
H         -0.21009       -5.30057        4.19792
H         -1.98612       -3.53721        4.85470
H         -0.83937       -2.38215        4.20766
H         -2.51284       -2.37603        3.64060
H         -2.84585       -1.95394       -2.76071
H         -1.25189       -1.86957       -3.51665
H         -2.47511       -2.93548       -4.17599
H          0.44706       -3.64718       -3.09993
H         -0.00092       -5.18450       -2.37527
H         -0.62141       -4.75064       -3.96565
H         -3.07376       -5.02578       -3.19446
H         -2.46095       -5.56605       -1.63933
H         -3.60077       -4.22793       -1.71129
H         -0.49923       -6.70085       -0.88336
H          0.47207       -5.53015        0.04266
H         -0.40831       -6.83611        0.87414
C          6.69963        0.01098        0.00052
C          5.42329        2.55321        2.04725
C          5.80871        3.47242       -0.26926
C          3.80855        4.16543        1.02198
C          4.83180       -2.39969       -1.75334
C          3.16460       -1.49029       -3.38545
C          5.40111       -0.43440       -3.22984
H          6.11888        1.73287        1.88822
H          5.97652        3.38289        2.48661
H          4.67942        2.22173        2.77146
H          6.32164        4.35633        0.10899
H          6.56196        2.71193       -0.46024
H          5.34496        3.73004       -1.22085
H          3.12552        3.94820        1.84196
H          4.37887        5.04919        1.30717
H          3.21980        4.41756        0.14036
H          4.04514       -2.90567       -1.19399
H          5.20648       -3.09019       -2.50852
H          5.64318       -2.18479       -1.06198
H          3.55944       -2.04191       -4.23825
H          2.41519       -2.12389       -2.91436
H          2.66781       -0.59726       -3.76390
H          6.27140       -0.20529       -2.62019
H          5.03859        0.49963       -3.65784
H          5.73030       -1.07674       -4.04621
H          7.43510        0.61413        0.53270
H          6.02508       -0.45751        0.71828
H          7.23135       -0.76041       -0.55612
