111
-148.54649167
P         -2.14653        2.46575        0.10471
P         -0.17025       -0.00323        0.47314
C         -1.66401        1.93672        1.76641
C         -0.80733        0.86938        1.92206
C         -1.86168        4.28556       -0.07452
C         -0.99919        4.58456       -1.28130
C         -2.09312        2.64487        2.87062
H         -2.74139        3.49570        2.73821
C         -1.66784        2.27555        4.13490
H         -2.00471        2.82639        4.99788
C         -0.79786        1.21379        4.28893
H         -0.45260        0.93557        5.27108
C         -0.35745        0.51681        3.17822
H          0.35754       -0.28474        3.28050
Pd        -1.04205        1.09123       -1.38514
Cl        -2.21966        2.10138       -3.00812
Cl         0.19419       -0.22075       -2.72483
C         -3.29221        4.85514       -0.16929
C         -3.96329        2.37972       -0.24161
H         -1.49614        4.26146       -2.19740
H         -0.79683        5.65407       -1.37592
H         -0.04185        4.06135       -1.22623
H         -3.28656        5.75751       -0.79800
H         -3.62946        5.18850        0.82315
H         -4.08605        1.64917       -1.05318
C         -4.29449        3.80597       -0.72751
C         -4.74649        1.94414        0.97823
H         -1.36069        4.61682        0.84548
H         -5.32473        4.06232       -0.44064
H         -4.27639        3.83759       -1.82689
H         -4.64497        2.67263        1.78385
H         -5.81205        1.84846        0.75648
H         -4.39138        0.98204        1.35517
C         -1.26328       -4.44454        0.51668
C         -0.67707       -3.86942       -0.63852
C         -0.37482       -2.51879       -0.61490
C         -0.55149       -1.76187        0.51390
C         -1.02718       -2.34177        1.66240
C         -1.35410       -3.68664        1.71119
O         -1.80165       -5.75798        0.46705
C         -0.41027       -4.66907       -1.92374
H         -0.03445       -2.02211       -1.50491
H         -1.17136       -1.72035        2.52665
C         -1.83499       -4.29317        3.03929
C          4.20233        1.19949        0.03440
C          3.76787       -0.02024       -0.54626
C          2.45114       -0.40701       -0.35679
C          1.56247        0.41293        0.28734
C          1.94653        1.65365        0.72986
C          3.25485        2.08859        0.60114
O          5.58587        1.51703        0.08146
C          4.69586       -0.91575       -1.38258
H          2.09859       -1.35355       -0.72492
H          1.20200        2.28068        1.18981
C          3.63567        3.48824        1.10760
C         -0.13145       -6.15180       -1.61638
C         -1.62103       -4.53910       -2.86005
C          0.83978       -4.12484       -2.65052
C         -1.20161       -3.55278        4.23953
C         -3.36260       -4.16341        3.13574
C         -1.42013       -5.77127        3.15523
C         -3.16440       -5.80813        0.06247
H          0.69669       -6.24874       -0.91511
H         -0.99825       -6.63758       -1.17631
H          0.12635       -6.69813       -2.52333
H         -2.52448       -4.92222       -2.39096
H         -1.79822       -3.49494       -3.11687
H         -1.46054       -5.09162       -3.78540
H          1.69679       -4.11231       -1.97832
H          1.09452       -4.75165       -3.50473
H          0.68308       -3.11649       -3.03000
H         -0.11695       -3.51371        4.14241
H         -1.57571       -2.53394        4.32879
H         -1.43552       -4.06128        5.17460
H         -3.73016       -4.57013        4.07752
H         -3.66487       -3.11794        3.07846
H         -3.85555       -4.69550        2.32578
H         -1.89467       -6.37785        2.38786
H         -0.34139       -5.87681        3.04498
H         -1.70435       -6.18340        4.12314
H         -3.75218       -6.31972        0.82458
H         -3.55512       -4.80029       -0.08334
H         -3.25215       -6.36816       -0.86828
C          6.26145        0.98733        1.21502
C          5.78934       -0.08848       -2.08309
C          5.33402       -1.97797       -0.47529
C          3.89456       -1.62751       -2.49591
C          4.08521        3.39098        2.57318
C          4.75695        4.09962        0.24817
C          2.42858        4.45000        1.02601
H          5.34370        0.69740       -2.69202
H          6.45306        0.38399       -1.36358
H          6.40021       -0.71551       -2.73203
H          5.92128       -1.51835        0.31642
H          4.56767       -2.59355       -0.00477
H          5.99127       -2.63424       -1.04519
H          3.20585       -2.36253       -2.08525
H          3.31935       -0.90894       -3.07930
H          4.56049       -2.15738       -3.17652
H          3.28854        2.98113        3.19374
H          4.95222        2.74289        2.67641
H          4.34959        4.37211        2.96678
H          5.67343        3.51914        0.32170
H          4.46327        4.12958       -0.80056
H          4.98448        5.11668        0.56641
H          2.72789        5.46794        1.27456
H          1.64030        4.17006        1.72342
H          2.01137        4.46160        0.01986
H          6.73426        1.79854        1.76854
H          5.55995        0.46363        1.86565
H          7.03983        0.29731        0.89003
