59
-75.79815577
Cl         1.51542        0.59025        2.40245
P          1.51492        0.19465       -0.81085
P         -1.63074       -0.22209       -0.77260
C          0.53512        0.35111       -2.36719
H          0.20747        1.38881       -2.46412
H          1.18787        0.13258       -3.21782
C         -0.64436       -0.57772       -2.29574
H         -0.30799       -1.61643       -2.23829
H         -1.29892       -0.49170       -3.16867
C          2.57739       -1.31882       -0.82783
H          2.62091       -1.65790       -1.86993
C          2.80994        1.49842       -0.58343
H          2.69636        1.86523        0.44404
C         -2.79096       -1.59431       -0.33050
H         -2.75746       -1.68207        0.76248
C         -2.84618        1.15098       -1.04102
H         -2.80313        1.39328       -2.10970
C          3.94811       -0.78674       -0.37315
H          4.03244       -0.91361        0.71504
H          4.75871       -1.39296       -0.80555
C          4.12704        0.71449       -0.73128
H          4.47619        0.80206       -1.76934
H          4.91610        1.17168       -0.11501
C         -4.15489       -1.04356       -0.77857
H         -4.33806       -1.35175       -1.81731
H         -4.96507       -1.49733       -0.18732
C         -4.19926        0.50556       -0.67997
H         -4.46209        0.79364        0.34726
H         -5.00046        0.91604       -1.31304
C          2.00131       -2.41361        0.06205
H          0.95653       -2.59717       -0.22335
H          1.95624       -2.04274        1.09479
C          2.65064        2.64787       -1.57153
H          2.73036        2.25088       -2.59214
H          1.63225        3.05156       -1.49738
C         -2.39868       -2.91942       -0.97254
H         -2.41619       -2.80398       -2.06419
H         -1.35392       -3.14613       -0.72015
C         -2.52951        2.38663       -0.20382
H         -3.37820        3.08242       -0.26252
H         -2.47269        2.09050        0.85188
C          2.79515       -3.70984        0.00259
H          2.83247       -4.10232       -1.01539
H          2.36163       -4.48506        0.63853
H          3.82616       -3.55879        0.32734
C          3.66549        3.76087       -1.35627
H          4.68728        3.39508       -1.47193
H          3.58514        4.17684       -0.35017
H          3.52969        4.58222       -2.06361
C         -3.29715       -4.07251       -0.55079
H         -3.27806       -4.21030        0.53196
H         -2.99387       -5.01716       -1.00801
H         -4.33559       -3.89081       -0.83347
C         -1.25118        3.09610       -0.61913
H         -1.06987        3.99482       -0.02520
H         -0.38283        2.44908       -0.49662
H         -1.28775        3.39646       -1.66794
Cl        -1.71445        0.13599        2.38986
Pd        -0.05139        0.08074        0.88190
