171
-217.83422264
P         -1.74471        0.67274        0.19808
P          1.52451       -0.15349       -0.21134
C         -0.94003        1.90670       -0.84987
C          0.70929       -0.71244       -1.72284
C         -0.17517        1.60265       -1.97022
C          0.49939        2.64487       -2.63305
C          0.35305        3.94470       -2.17929
C         -0.42045        4.22976       -1.07472
C         -1.05323        3.20213       -0.40271
C          0.83931       -2.00973       -2.15707
C          0.22685       -2.42041       -3.32440
C         -0.53625       -1.52824       -4.04702
C         -0.70857       -0.22421       -3.61403
C         -0.05282        0.20007       -2.44206
Cl         1.93566        1.13540        2.76410
Cl        -1.10971        0.42679        3.44992
C         -1.56913        0.70845       -4.39289
C          1.37692        2.38438       -3.80675
H         -0.52169        5.24548       -0.72883
H         -1.63557        3.40593        0.48379
H          1.40423       -2.71508       -1.57389
H          0.33872       -3.43635       -3.66628
H          0.86312        4.73825       -2.69908
H         -1.00902       -1.84275       -4.96172
C         -2.69712       -3.46616       -1.38116
C         -3.38230       -2.36908       -1.88566
C         -3.04009       -1.11343       -1.39942
C         -2.06449       -0.97695       -0.44266
C         -1.41190       -2.07814        0.06285
C         -1.70913       -3.35016       -0.41174
H         -2.95414       -4.44475       -1.74263
H         -3.54304       -0.23027       -1.75272
H         -0.66605       -1.94062        0.82467
C         -5.75491        2.41019        1.40900
C         -4.98104        1.79206        2.38489
C         -3.75182        1.27338        2.00520
C         -3.32013        1.36699        0.70785
C         -4.09623        1.98017       -0.24460
C         -5.33245        2.51886        0.08854
H         -6.70669        2.82128        1.68496
H         -3.10896        0.81173        2.73234
H         -3.72668        2.05155       -1.25436
C          3.74769       -3.66867        1.66481
C          2.92728       -2.90064        2.47831
C          2.25911       -1.83208        1.89791
C          2.41045       -1.53422        0.56381
C          3.25767       -2.28929       -0.21223
C          3.92193       -3.38960        0.31613
H          4.27442       -4.50024        2.09564
H          1.63062       -1.21213        2.50664
H          3.39589       -2.01898       -1.24379
C          4.60455        2.96024       -1.38562
C          3.75497        3.23740       -0.32082
C          2.82077        2.27397        0.03237
C          2.74347        1.08680       -0.65003
C          3.58774        0.83125       -1.70247
C          4.53995        1.76487       -2.09278
H          5.34091        3.68885       -1.66440
H          2.15956        2.44422        0.86295
H          3.49923       -0.10309       -2.22956
Pd         0.12433        0.52009        1.58092
C         -5.58007       -3.49652       -2.31496
C         -4.50322       -2.57298       -2.91489
C         -3.92161       -3.21379       -4.18712
C         -5.17066       -1.23803       -3.29816
H         -5.17386       -4.47924       -2.07871
H         -5.98271       -3.07077       -1.39601
H         -6.40595       -3.63691       -3.01214
H         -3.17020       -2.56507       -4.63428
H         -3.45097       -4.17175       -3.96906
H         -4.70140       -3.38496       -4.92905
H         -5.96608       -1.39706       -4.02610
H         -5.61310       -0.75992       -2.42467
H         -4.45088       -0.55091       -3.74157
C         -2.07477       -5.46173        0.88080
C         -1.02971       -4.61626        0.13142
C          0.11375       -4.27673        1.10273
C         -0.43853       -5.43480       -1.03252
H         -2.50914       -4.89453        1.70387
H         -2.88529       -5.76386        0.21838
H         -1.62419       -6.36446        1.29298
H          0.60189       -5.18441        1.45669
H          0.87008       -3.66869        0.61015
H         -0.25386       -3.73552        1.97406
H          0.29682       -4.84922       -1.58228
H          0.05837       -6.33177       -0.66315
H         -1.21008       -5.74897       -1.73394
C         -4.40549        2.41235        4.74407
C         -5.42174        1.67592        3.85115
C         -5.47538        0.18868        4.24785
C         -6.81428        2.29376        4.08084
H         -4.69904        2.36296        5.79239
H         -3.41143        1.97550        4.65588
H         -4.33498        3.46249        4.46158
H         -5.80402        0.07179        5.28033
H         -6.16985       -0.35552        3.60813
H         -4.49693       -0.28120        4.15514
H         -7.11236        2.19720        5.12479
H         -6.81828        3.35537        3.83446
H         -7.56985        1.79415        3.47479
C         -7.50561        3.73436       -0.44816
C         -6.16135        3.21957       -0.99748
C         -6.44927        2.22656       -2.13888
C         -5.36387        4.41851       -1.54410
H         -8.08222        4.22305       -1.23349
H         -8.10900        2.91521       -0.05735
H         -7.35160        4.46240        0.34807
H         -6.98725        1.35593       -1.76440
H         -7.05693        2.69032       -2.91570
H         -5.52721        1.87839       -2.60282
H         -4.42270        4.09792       -1.98961
H         -5.93122        4.94902       -2.30858
H         -5.13203        5.12269       -0.74529
C          4.18591       -3.01056        4.63737
C          2.81061       -3.21483        3.97728
C          2.35403       -4.67266        4.17121
C          1.79026       -2.29183        4.67451
H          4.13916       -3.20904        5.70796
H          4.93291       -3.67572        4.20546
H          4.52985       -1.98582        4.49803
H          2.27231       -4.91626        5.23036
H          1.37848       -4.83594        3.71522
H          3.05656       -5.37401        3.72305
H          1.70260       -2.54081        5.73179
H          2.09377       -1.24728        4.60834
H          0.80081       -2.39199        4.22873
C          4.80625       -3.86771       -2.02330
C          4.81049       -4.29930       -0.54356
C          4.28265       -5.74436       -0.46268
C          6.25591       -4.23978       -0.01859
H          5.20440       -2.86068       -2.13967
H          5.42424       -4.53593       -2.62287
H          3.79776       -3.89136       -2.43613
H          4.31756       -6.12420        0.55761
H          3.24835       -5.79493       -0.80306
H          4.87656       -6.41215       -1.08647
H          6.63588       -3.21886       -0.05437
H          6.31584       -4.58283        1.01367
H          6.91523       -4.86712       -0.61821
C          4.91425        5.48944       -0.05306
C          3.84275        4.53129        0.50119
C          4.20455        4.17698        1.95572
C          2.48300        5.25205        0.46951
H          4.69614        5.76635       -1.08440
H          4.95290        6.40694        0.53404
H          5.90411        5.03489       -0.01772
H          5.15600        3.64738        1.99738
H          4.28953        5.07489        2.56733
H          3.44721        3.53653        2.40635
H          2.51883        6.17893        1.04155
H          2.20392        5.49868       -0.55430
H          1.69488        4.63066        0.89295
C          6.43224        0.27378       -2.75450
C          5.51800        1.41873       -3.22582
C          6.39547        2.62548       -3.61079
C          4.73897        0.97213       -4.47814
H          6.99226        0.56802       -1.86708
H          5.85036       -0.61151       -2.50232
H          7.14634       -0.00261       -3.53001
H          5.78209        3.47177       -3.91988
H          7.02365        2.93853       -2.77717
H          7.05574        2.37385       -4.44071
H          5.42154        0.71917       -5.28929
H          4.12649        0.09406       -4.27799
H          4.08398        1.76784       -4.83058
H         -0.99028        1.22542       -5.15918
H          2.32876        2.90599       -3.69568
H         -2.02191        1.46073       -3.74498
H         -2.37879        0.17302       -4.89089
H          0.90967        2.73202       -4.72916
H          1.59381        1.32116       -3.91648
