111
-148.55495904
P         -2.58700        2.05248        0.77750
P          0.13012        0.44446        0.45896
C         -1.50286        1.82135        2.21180
C         -0.30542        1.15604        2.05940
C         -3.41784        3.70585        0.78660
C         -2.81618        4.62718       -0.25204
C         -1.87475        2.29355        3.45414
H         -2.82125        2.79520        3.57219
C         -1.03822        2.10558        4.54098
H         -1.32750        2.47445        5.51148
C          0.16426        1.44323        4.38441
H          0.81411        1.29456        5.23103
C          0.52956        0.96226        3.13994
H          1.45705        0.42833        3.00341
Pd        -1.31288        1.46474       -1.04789
Cl        -3.01316        2.05092       -2.38240
Cl         0.14884        0.81239       -2.62966
C         -4.89690        3.34797        0.54750
C         -4.06414        0.93875        0.78134
H         -3.30919        5.60215       -0.25473
H         -1.75012        4.78574       -0.07231
H         -2.91969        4.20330       -1.25209
H         -5.10563        3.41622       -0.52908
H         -5.55395        4.09164        1.02358
H         -4.13591        0.52610       -0.23401
C         -5.22772        1.91210        1.04628
C         -3.92022       -0.16880        1.80222
H         -3.28214        4.11896        1.79414
H         -5.42948        1.93655        2.12606
H         -6.15277        1.53813        0.58164
H         -3.77983        0.24262        2.80350
H         -4.80549       -0.80847        1.82611
H         -3.05529       -0.79754        1.58152
C         -1.18508       -3.91244        0.23518
C         -1.09216       -3.27597        1.49995
C         -0.67172       -1.95700        1.54236
C         -0.42599       -1.25795        0.39004
C         -0.62132       -1.83709       -0.83525
C         -1.03509       -3.15136       -0.95174
O         -1.39043       -5.31576        0.15946
C         -1.40961       -4.00491        2.81511
H         -0.52359       -1.45629        2.48264
H         -0.43134       -1.23907       -1.70909
C         -1.28051       -3.72918       -2.35372
C          4.54151        0.78168       -0.62973
C          3.82958       -0.41633       -0.90078
C          2.48951       -0.46988       -0.55942
C          1.87534        0.57107        0.08566
C          2.58530        1.68509        0.44989
C          3.93359        1.80183        0.15069
O          5.82334        0.98932       -1.20064
C          4.44929       -1.66232       -1.55568
H          1.90051       -1.33378       -0.81379
H          2.06991        2.47320        0.97245
C          4.68930        3.02288        0.70265
C         -0.13636       -4.68583        3.33915
C         -1.91233       -3.01086        3.88690
C         -2.52458       -5.04716        2.61333
C          0.03482       -4.30371       -2.90171
C         -2.36751       -4.81853       -2.32425
C         -1.77609       -2.62497       -3.31652
C         -0.18841       -6.07530        0.13041
H          0.65052       -3.95154        3.51020
H         -0.32811       -5.20100        4.28006
H          0.24144       -5.41616        2.62781
H         -2.75377       -2.42888        3.51274
H         -2.24488       -3.54088        4.77914
H         -1.12904       -2.32166        4.19876
H         -2.79563       -5.51908        3.55741
H         -3.41701       -4.57880        2.19946
H         -2.21332       -5.83362        1.93020
H          0.79833       -3.52841       -2.96029
H          0.41689       -5.09532       -2.26147
H         -0.10502       -4.71562       -3.90076
H         -2.05924       -5.67147       -1.72508
H         -3.29053       -4.42731       -1.89766
H         -2.58505       -5.18242       -3.32810
H         -0.99831       -1.89255       -3.52704
H         -2.07891       -3.05194       -4.27219
H         -2.63442       -2.10096       -2.89686
H         -0.18536       -6.78437        0.95814
H         -0.13277       -6.63919       -0.80050
H          0.67911       -5.41885        0.20991
C          5.76341        1.61088       -2.47366
C          5.98703       -1.63306       -1.52787
C          4.00698       -2.92612       -0.78336
C          3.96003       -1.76865       -3.00972
C          4.27935        4.27802       -0.08511
C          4.32683        3.21970        2.19168
C          6.21646        2.84779        0.63322
H          6.37711       -0.82189       -2.13797
H          6.35020       -1.49037       -0.51072
H          6.40468       -2.56372       -1.91129
H          4.50141       -3.81405       -1.17657
H          4.26114       -2.83997        0.27269
H          2.93400       -3.09486       -0.85934
H          4.35437       -2.66409       -3.48937
H          2.87230       -1.81595       -3.05134
H          4.27549       -0.90768       -3.59550
H          3.20507        4.44665       -0.01741
H          4.78315        5.16301        0.30274
H          4.53391        4.18225       -1.13879
H          4.90726        4.03190        2.62861
H          3.27472        3.46616        2.32411
H          4.53493        2.31401        2.76069
H          6.52032        1.92549        1.12708
H          6.72961        3.67831        1.11744
H          6.56235        2.80386       -0.39671
H          5.28897        2.58720       -2.39131
H          6.77463        1.73283       -2.86234
H          5.18423        0.99778       -3.16194
