111
-148.55353673
P         -1.68946        2.77226        0.19063
P         -0.49587       -0.14812        0.47029
C         -1.45712        2.04170        1.83628
C         -1.00861        0.74291        1.95326
C         -0.51628        4.18070       -0.05398
C          0.47142        3.86680       -1.15747
C         -1.69623        2.79023        2.97115
H         -2.00631        3.81781        2.87489
C         -1.51195        2.22589        4.22156
H         -1.70248        2.80937        5.10751
C         -1.07811        0.91911        4.33547
H         -0.92910        0.48152        5.30887
C         -0.81550        0.17872        3.19708
H         -0.44295       -0.83065        3.26897
Pd        -1.54844        0.97652       -1.25849
Cl        -2.84286        2.07725       -2.71747
Cl        -1.22336       -0.84619       -2.53488
C         -1.44459        5.37435       -0.35683
C         -3.30394        3.66253        0.01172
H          1.07016        2.98567       -0.91807
H         -0.05008        3.66117       -2.09456
H          1.15385        4.70193       -1.33216
H         -1.47246        5.52991       -1.44401
H         -1.02464        6.30168        0.06107
H         -3.63547        3.47634       -1.01791
C         -2.89111        5.13740        0.16390
C         -4.35281        3.18137        0.99162
H         -0.00429        4.32046        0.90714
H         -2.95390        5.41781        1.22421
H         -3.60844        5.79075       -0.35609
H         -4.53155        2.10914        0.88364
H         -4.04241        3.35861        2.02153
H         -5.30294        3.69960        0.84356
C         -0.56516       -4.66999        0.99794
C         -1.58081       -4.04020        0.23354
C         -1.55802       -2.65967        0.12166
C         -0.53520       -1.92531        0.66106
C          0.50818       -2.53859        1.30459
C          0.54114       -3.91425        1.46273
O         -0.66894       -6.04908        1.32188
C         -2.69587       -4.82911       -0.47133
H         -2.33565       -2.13567       -0.40648
H          1.30536       -1.92050        1.68128
C          1.75616       -4.56110        2.14599
C          3.63686        1.36819       -0.69768
C          2.93331        0.49380       -1.56488
C          1.68074        0.05344       -1.17476
C          1.16062        0.38869        0.04630
C          1.87556        1.15451        0.92840
C          3.13458        1.62952        0.60303
O          4.82140        2.01205       -1.14483
C          3.47614        0.06252       -2.93539
H          1.06449       -0.52458       -1.84101
H          1.42575        1.39528        1.87528
C          3.91041        2.45222        1.64284
C         -2.19867       -6.21815       -0.91157
C         -3.89719       -4.97186        0.47493
C         -3.15760       -4.09218       -1.74982
C          2.03386       -5.96148        1.56993
C          3.02959       -3.71648        1.91073
C          1.50068       -4.65155        3.65799
C         -1.37872       -6.31049        2.52594
H         -2.96737       -6.75071       -1.47096
H         -1.31858       -6.12634       -1.54718
H         -1.92936       -6.83287       -0.05632
H         -3.62299       -5.50382        1.38279
H         -4.27651       -3.99273        0.76635
H         -4.70846       -5.51938       -0.00415
H         -3.84702       -4.70931       -2.32538
H         -3.67837       -3.16502       -1.51588
H         -2.30731       -3.85452       -2.38854
H          2.93324       -6.39411        2.00745
H          1.21058       -6.64286        1.76992
H          2.17167       -5.91161        0.49035
H          2.98195       -2.76103        2.43121
H          3.91281       -4.23722        2.28001
H          3.17550       -3.52212        0.84839
H          1.33160       -3.66114        4.08008
H          0.62370       -5.25702        3.87381
H          2.35204       -5.09706        4.17198
H         -0.73446       -6.85082        3.21934
H         -1.70617       -5.37700        2.98536
H         -2.24613       -6.93441        2.31136
C          4.59782        3.26266       -1.78472
C          5.01229       -0.03309       -2.92125
C          2.94173       -1.33773       -3.31528
C          3.01394        1.06826       -4.00098
C          3.55384        3.93803        1.48308
C          3.53845        2.00887        3.07649
C          5.42864        2.24883        1.49059
H          5.46932        0.93551       -2.73587
H          5.34670       -0.71471       -2.13987
H          5.39089       -0.39865       -3.87546
H          3.42407       -1.70316       -4.22152
H          3.13630       -2.05589       -2.51914
H          1.87021       -1.32235       -3.50854
H          3.37171        0.78203       -4.98959
H          1.92577        1.11763       -4.03682
H          3.38274        2.06838       -3.78642
H          4.08615        4.54792        2.21250
H          3.80948        4.30118        0.49065
H          2.48532        4.09502        1.62795
H          4.18020        2.49560        3.81055
H          2.51160        2.27156        3.32685
H          3.65545        0.93154        3.19165
H          5.78399        2.61393        0.53034
H          5.68272        1.19168        1.56050
H          5.97545        2.78148        2.26826
H          3.53255        3.49393       -1.80860
H          5.12823        4.04859       -1.24737
H          4.98405        3.22738       -2.80323
