111
-148.55099751
P         -2.68597        2.14985        0.45078
P          0.02985        0.54439        0.33640
C         -1.59703        2.12491        1.90055
C         -0.38693        1.47108        1.82372
C         -3.54684        3.78346        0.29968
C         -2.92551        4.66637       -0.76013
C         -1.96807        2.74635        3.07625
H         -2.92528        3.23653        3.14240
C         -1.11750        2.71983        4.16813
H         -1.40682        3.20498        5.08605
C          0.09967        2.07135        4.08426
H          0.76076        2.04919        4.93494
C          0.46424        1.44031        2.90865
H          1.40208        0.91290        2.83124
Pd        -1.49817        1.18328       -1.28589
Cl        -2.84355        2.17815       -2.77457
Cl        -0.11881        0.32065       -2.84121
C         -5.00558        3.37135        0.03284
C         -4.15012        1.02521        0.60458
H         -3.43029        5.63330       -0.82016
H         -1.86781        4.84722       -0.55513
H         -2.99316        4.20164       -1.74361
H         -5.15865        3.29943       -1.05286
H         -5.69635        4.15549        0.37860
H         -4.19678        0.45663       -0.33393
C         -5.33689        2.00325        0.69527
C         -4.00417        0.09440        1.78898
H         -3.46756        4.26293        1.28347
H         -5.58520        2.16051        1.75382
H         -6.23645        1.55689        0.24502
H         -4.87576       -0.55532        1.89703
H         -3.12069       -0.53958        1.68646
H         -3.89481        0.66065        2.71576
C         -0.88004       -3.88189        0.90763
C         -0.90115       -3.01636        2.03147
C         -0.62343       -1.67472        1.83189
C         -0.40473       -1.17862        0.57378
C         -0.48632       -1.99233       -0.52418
C         -0.76473       -3.34157       -0.39855
O         -0.93069       -5.28903        1.09334
C         -1.17119       -3.51856        3.45806
H         -0.55528       -0.99829        2.66506
H         -0.31413       -1.55020       -1.48979
C         -0.89914       -4.19298       -1.67005
C          4.46124        0.72495       -0.69638
C          3.56441        1.63737       -1.31475
C          2.22913        1.59822       -0.94660
C          1.76582        0.64590       -0.07772
C          2.60444       -0.31514        0.42468
C          3.95126       -0.33116        0.10416
O          5.86241        0.91097       -0.81685
C          3.98056        2.63700       -2.40737
H          1.52760        2.30712       -1.35269
H          2.18912       -1.06970        1.07169
C          4.79513       -1.51242        0.61213
C          0.15897       -3.92193        4.11240
C         -1.82577       -2.40999        4.31391
C         -2.14370       -4.71185        3.45129
C          0.48711       -4.71292       -2.08000
C         -1.86732       -5.36977       -1.45268
C         -1.47305       -3.34735       -2.83055
C          0.34690       -5.90040        1.22359
H          0.00235       -4.27149        5.13255
H          0.64648       -4.71853        3.55550
H          0.84386       -3.07484        4.14668
H         -2.71525       -2.01571        3.82358
H         -2.12599       -2.79953        5.28638
H         -1.14085       -1.58389        4.49908
H         -3.07289       -4.44645        2.94811
H         -1.71754       -5.56816        2.93455
H         -2.38513       -5.02648        4.46628
H          1.16929       -3.88366       -2.26626
H          0.92375       -5.33059       -1.29873
H          0.42674       -5.31126       -2.98868
H         -1.49273       -6.05878       -0.69999
H         -2.84020       -5.00926       -1.12021
H         -2.01116       -5.93424       -2.37362
H         -0.77060       -2.58383       -3.16098
H         -1.69273       -3.97405       -3.69447
H         -2.39750       -2.85453       -2.53070
H          0.48694       -6.63078        0.42693
H          1.13598       -5.14916        1.17062
H          0.40609       -6.42280        2.17829
C          6.39222        1.75513        0.19120
C          2.97370        2.56273       -3.57735
C          3.97821        4.06068       -1.82778
C          5.36934        2.32196       -2.98997
C          6.14287       -1.62383       -0.12113
C          5.04214       -1.35200        2.12101
C          4.03268       -2.83390        0.36184
H          2.89214        1.54186       -3.94936
H          1.97939        2.89016       -3.27894
H          3.28988        3.19829       -4.40401
H          2.99331        4.32272       -1.44253
H          4.69046        4.15287       -1.00991
H          4.24587        4.79176       -2.59021
H          5.60305        2.97940       -3.82703
H          6.14861        2.45123       -2.24254
H          5.41294        1.29227       -3.34318
H          5.99097       -1.67051       -1.19891
H          6.77748       -0.76607        0.08922
H          6.68471       -2.51814        0.18574
H          4.10024       -1.30723        2.66707
H          5.61780       -2.19023        2.51271
H          5.59336       -0.43793        2.33380
H          3.11665       -2.89231        0.94749
H          4.64509       -3.69326        0.63365
H          3.76590       -2.93048       -0.69023
H          5.92059        2.73543        0.14323
H          6.20780        1.32406        1.17396
H          7.46653        1.86389        0.04105
