171
-217.83678722
P         -1.51360        0.21392       -0.18050
P          1.73420       -0.71106        0.23422
C         -0.69374        0.72266       -1.70642
C          0.86722       -1.93037       -0.77920
C          0.04783       -0.22118       -2.40674
C          0.71107        0.16438       -3.58760
C          0.56167        1.46154       -4.04936
C         -0.18952        2.38217       -3.34970
C         -0.80791        2.01004       -2.17239
C          0.90865       -3.21536       -0.29153
C          0.21964       -4.22671       -0.93244
C         -0.52803       -3.93554       -2.05310
C         -0.59683       -2.64548       -2.55128
C          0.12274       -1.61919       -1.91115
Cl         1.15502       -0.46811        3.45804
Cl        -1.92197       -0.96226        2.87682
C         -1.44282       -2.37749       -3.74661
C          1.55064       -0.80325       -4.34634
H         -0.28868        3.38993       -3.71852
H         -1.37004        2.73390       -1.60894
H          1.47612       -3.42191        0.60402
H          0.25900       -5.23407       -0.55138
H          1.04068        1.74760       -4.97015
H         -1.07904       -4.71602       -2.55041
C         -4.72059       -2.78863       -1.29058
C         -3.93770       -3.04262       -0.17048
C         -2.96501       -2.11223        0.16527
C         -2.77644       -0.98868       -0.59737
C         -3.54830       -0.76015       -1.71017
C         -4.54358       -1.65792       -2.07880
H         -5.50156       -3.47724       -1.55196
H         -2.36499       -2.25301        1.04595
H         -3.35695        0.11994       -2.29907
C         -3.75517        3.75863        1.61574
C         -3.94538        3.42075        0.28151
C         -3.25187        2.32677       -0.21861
C         -2.37009        1.62461        0.56662
C         -2.20440        1.97496        1.88575
C         -2.89930        3.03973        2.44093
H         -4.29569        4.59043        2.02436
H         -3.40767        2.01918       -1.23820
H         -1.55326        1.39597        2.51319
C          5.75309       -2.49388        1.33296
C          5.29133       -2.60047        0.02652
C          4.04325       -2.06457       -0.26723
C          3.30191       -1.44638        0.70994
C          3.77364       -1.35373        1.99357
C          5.01151       -1.87840        2.33488
H          6.71700       -2.90424        1.56836
H          3.63450       -2.12893       -1.26146
H          3.15864       -0.88232        2.73832
C          2.82002        3.34645       -1.47018
C          1.82607        3.29294       -0.50109
C          1.48609        2.04706        0.01314
C          2.10371        0.90979       -0.45407
C          3.08520        0.98519       -1.41148
C          3.47040        2.21191       -1.93638
H          3.10970        4.30416       -1.86169
H          0.73253        1.95713        0.77441
H          3.56053        0.07660       -1.73604
Pd        -0.12715       -0.46111        1.61567
C         -4.50836       -3.83401        2.13682
C         -4.12253       -4.28253        0.71493
C         -2.80153       -5.07260        0.76252
C         -5.22695       -5.21058        0.17455
H         -3.73037       -3.21411        2.58090
H         -5.42929       -3.25169        2.11989
H         -4.66294       -4.69325        2.78902
H         -1.99496       -4.47147        1.18068
H         -2.90301       -5.96701        1.37677
H         -2.50384       -5.38262       -0.23875
H         -6.19074       -4.70235        0.15186
H         -4.99193       -5.55346       -0.83297
H         -5.33462       -6.09197        0.80665
C         -5.55197       -2.63586       -4.17473
C         -5.47627       -1.39095       -3.26966
C         -4.98045       -0.20657       -4.12354
C         -6.87925       -1.05805       -2.73212
H         -4.56459       -2.90651       -4.54655
H         -5.95829       -3.49477       -3.64269
H         -6.19341       -2.44995       -5.03607
H         -4.98037        0.72082       -3.55166
H         -3.97043       -0.38518       -4.49173
H         -5.62685       -0.05596       -4.98806
H         -7.28226       -1.88638       -2.15010
H         -6.84571       -0.18108       -2.08577
H         -7.57205       -0.85120       -3.54762
C         -4.08409        4.72344       -1.85496
C         -4.88696        4.19669       -0.64990
C         -5.53671        5.39680        0.06494
C         -6.00219        3.25495       -1.14099
H         -4.71848        5.30783       -2.52110
H         -3.26485        5.36093       -1.52255
H         -3.65729        3.90652       -2.43570
H         -6.19153        5.94280       -0.61412
H         -6.14009        5.07004        0.91162
H         -4.78074        6.09391        0.42611
H         -6.69662        3.78010       -1.79651
H         -5.59246        2.41220       -1.69620
H         -6.56752        2.85598       -0.29902
C         -3.23759        2.10377        4.73662
C         -2.74857        3.32982        3.94230
C         -3.57601        4.55604        4.37240
C         -1.27019        3.60037        4.27743
H         -3.16589        2.27889        5.80977
H         -4.27728        1.88069        4.49842
H         -2.64555        1.21966        4.50271
H         -3.26322        5.44892        3.83125
H         -4.63882        4.39575        4.19230
H         -3.44925        4.75360        5.43677
H         -0.63991        2.75167        4.01457
H         -0.90645        4.47403        3.73811
H         -1.14217        3.78941        5.34304
C          7.48562       -2.51502       -1.18304
C          6.15734       -3.28104       -1.04295
C          5.45673       -3.29622       -2.41639
C          6.43613       -4.73569       -0.62255
H          7.30355       -1.47649       -1.45889
H          8.04586       -2.51944       -0.24878
H          8.11527       -2.96307       -1.95156
H          4.51330       -3.83998       -2.36977
H          5.25549       -2.28387       -2.76614
H          6.08183       -3.78420       -3.16407
H          6.97971       -4.77880        0.32050
H          5.50316       -5.28478       -0.49652
H          7.03270       -5.25162       -1.37471
C          5.58765       -0.27222        4.17103
C          5.50265       -1.76063        3.78464
C          6.89455       -2.39466        3.96968
C          4.50877       -2.48032        4.71553
H          6.26666        0.26011        3.50525
H          4.61231        0.20900        4.10841
H          5.95230       -0.15399        5.19120
H          6.87801       -3.45620        3.72345
H          7.63602       -1.90402        3.33937
H          7.22735       -2.30144        5.00339
H          4.83880       -2.42975        5.75290
H          3.51767       -2.03165        4.65940
H          4.41587       -3.53080        4.44090
C          0.61629        5.39421       -1.18671
C          1.18680        4.59627        0.00106
C          2.25962        5.43373        0.71990
C          0.03878        4.32045        0.98694
H          1.39372        5.65810       -1.90224
H         -0.14159        4.81541       -1.71227
H          0.15180        6.31924       -0.84546
H          3.07576        5.69101        0.04555
H          1.83762        6.36188        1.10497
H          2.68075        4.88015        1.55897
H         -0.74360        3.72845        0.51539
H          0.39871        3.78429        1.86402
H         -0.41343        5.25144        1.32834
C          4.04988        2.96209       -4.26018
C          4.60255        2.34125       -2.96535
C          5.22229        0.97054       -3.30310
C          5.70991        3.24318       -2.38891
H          3.27483        2.32882       -4.68900
H          3.61630        3.94422       -4.07524
H          4.83780        3.07861       -5.00411
H          4.48011        0.29810       -3.73178
H          6.02756        1.07797       -4.02962
H          5.64120        0.50063       -2.41342
H          5.33839        4.24654       -2.18439
H          6.09370        2.83139       -1.45564
H          6.54273        3.33248       -3.08624
H         -2.43205       -2.81874       -3.62107
H          1.99544       -1.54474       -3.68068
H         -0.99616       -2.80539       -4.64523
H         -1.57803       -1.30816       -3.91229
H          2.36526       -0.29536       -4.86460
H          0.95793       -1.33184       -5.09388
