87
-129.18098855
P         -1.74449       -0.33367        0.26971
P          1.50166        0.38676       -0.11472
C         -1.51344        1.08991       -0.82565
C          1.11572       -0.51463       -1.62152
C         -0.72690        1.10933       -1.97522
C         -0.59812        2.31799       -2.68681
C         -1.26077        3.44667       -2.23613
C         -2.02775        3.41145       -1.09253
C         -2.14600        2.22960       -0.38717
C          1.88516       -1.58777       -1.99816
C          1.59302       -2.27059       -3.16246
C          0.52573       -1.87235       -3.94096
C         -0.26492       -0.79450       -3.57647
C          0.04301       -0.09024       -2.39550
Cl         1.54836        1.20322        3.02251
Cl        -1.12267       -0.52013        3.49087
H         -2.52729        4.30110       -0.74571
H         -2.73155        2.19210        0.51955
H          2.71771       -1.88865       -1.38433
H          2.19341       -3.11532       -3.45794
H         -1.15821        4.36655       -2.78653
H          0.29032       -2.40854       -4.84460
C         -0.77706       -4.47504       -1.34094
C         -0.22772       -4.06581       -0.13392
C         -0.54430       -2.79928        0.34226
C         -1.37321       -1.96871       -0.37701
C         -1.94398       -2.39796       -1.55163
C         -1.64052       -3.65496       -2.03987
H         -0.52810       -5.44931       -1.72579
C          0.70261       -4.95202        0.61612
H         -0.17388       -2.47749        1.30056
H         -2.61134       -1.74333       -2.08812
H         -2.06996       -3.98933       -2.96999
C         -6.16197       -0.36341        1.38024
C         -5.21765       -0.52129        2.37499
C         -3.87447       -0.50642        2.05627
C         -3.48088       -0.33743        0.75094
C         -4.42033       -0.18104       -0.24291
C         -5.77782       -0.18244        0.05880
H         -7.21065       -0.37976        1.62395
H         -5.52704       -0.65631        3.39849
H         -3.12544       -0.62011        2.82054
H         -4.09818       -0.04808       -1.26274
C         -6.79339       -0.03478       -1.01909
C          5.10414       -1.51541        1.93022
C          5.17947       -0.21754        1.46564
C          4.08748        0.35478        0.84146
C          2.93238       -0.37403        0.68054
C          2.85581       -1.66702        1.14319
C          3.93945       -2.25601        1.78265
H          5.95348       -1.96383        2.41685
H          6.08620        0.35078        1.59316
H          4.12916        1.37077        0.48427
H          1.94926       -2.22870        1.00288
C          3.85396       -3.65822        2.27371
C          2.51007        4.68968       -1.17059
C          1.77632        4.42480       -0.03108
C          1.47591        3.11919        0.30654
C          1.90309        2.09256       -0.50185
C          2.64516        2.35086       -1.63091
C          2.95424        3.65901       -1.98713
H          2.74970        5.70581       -1.43400
H          1.44260        5.23375        0.59782
H          0.92842        2.89427        1.20687
H          2.97822        1.53039       -2.24528
C          3.76542        3.94734       -3.20108
Pd         0.04470        0.17451        1.71077
C          0.24117        2.41748       -3.91371
C         -1.42373       -0.41404       -4.43054
H          0.81712        3.34384       -3.91590
H          0.94969        1.59162       -3.98316
H         -0.37892        2.40778       -4.81083
H         -1.08705        0.04111       -5.36280
H         -2.02394       -1.28938       -4.68310
H         -2.07720        0.29723       -3.92401
H          1.71854       -4.86030        0.22960
H          0.71910       -4.69831        1.67691
H          0.40305       -5.99752        0.53104
H         -7.07409       -1.00869       -1.42254
H         -7.69714        0.44860       -0.64526
H         -6.40928        0.57189       -1.84053
H          3.96709       -4.36532        1.45082
H          4.63324       -3.86929        3.00728
H          2.89166       -3.84514        2.75225
H          3.38155        4.82090       -3.73009
H          4.80478        4.14403       -2.93450
H          3.75034        3.10619       -3.89577
