111
-148.55101776
P         -2.53993        2.11369        0.75487
P          0.13364        0.43184        0.47574
C         -1.47267        1.85494        2.20262
C         -0.29240        1.15753        2.06665
C         -3.43871        3.72755        0.91047
C         -3.27873        4.58309       -0.32641
C         -1.84147        2.34049        3.44155
H         -2.77439        2.86820        3.55184
C         -1.02053        2.13392        4.53683
H         -1.30883        2.51400        5.50332
C          0.16511        1.43929        4.39416
H          0.80316        1.27636        5.24710
C          0.52801        0.94463        3.15454
H          1.44206        0.38559        3.02749
Pd        -1.26231        1.44318       -1.06263
Cl        -2.85632        2.30271       -2.38226
Cl         0.06095        0.73610       -2.73543
C         -4.89240        3.28734        1.18217
C         -3.97141        0.94114        0.70238
H         -3.76917        5.55251       -0.21086
H         -2.22515        4.76033       -0.55426
H         -3.72530        4.09258       -1.19212
H         -5.58528        4.03484        0.76890
H         -5.08395        3.27405        2.26520
H         -3.85404        0.33693       -0.20791
C         -5.18960        1.88059        0.59091
C         -3.98330        0.05246        1.92697
H         -3.01077        4.24368        1.78027
H         -6.05373        1.42297        1.09423
H         -5.48258        1.98592       -0.46411
H         -4.07316        0.65010        2.83600
H         -4.82041       -0.64945        1.90655
H         -3.05955       -0.52522        2.00314
C         -1.19879       -3.92190        0.27170
C         -1.10517       -3.28034        1.53378
C         -0.68269       -1.96182        1.57061
C         -0.43544       -1.26749        0.41563
C         -0.63502       -1.85101       -0.80714
C         -1.04972       -3.16544       -0.91821
O         -1.40300       -5.32567        0.20127
C         -1.41986       -4.00450        2.85231
H         -0.53129       -1.45858        2.50895
H         -0.44794       -1.25679       -1.68430
C         -1.29414       -3.74985       -2.31774
C          4.53440        0.75508       -0.66012
C          3.80248       -0.42151       -0.96907
C          2.46671       -0.47145       -0.61074
C          1.87542        0.55045        0.08438
C          2.60596        1.63903        0.48355
C          3.95150        1.75010        0.17020
O          5.80997        0.97009       -1.24222
C          4.39514       -1.64816       -1.68282
H          1.86337       -1.31731       -0.89047
H          2.10892        2.41209        1.04483
C          4.73158        2.93775        0.75984
C         -1.92743       -3.00767        3.91908
C         -2.53020       -5.05278        2.65599
C         -0.14353       -4.67711        3.37960
C          0.02150       -4.32723       -2.86210
C         -2.38123       -4.83901       -2.28389
C         -1.78862       -2.65062       -3.28666
C         -0.20024       -6.08421        0.17515
H         -2.77337       -2.43380        3.54263
H         -2.25527       -3.53480        4.81477
H         -1.14840       -2.31147        4.22599
H         -2.21551       -5.84161        1.97723
H         -2.79935       -5.52072        3.60259
H         -3.42462       -4.59060        2.23947
H          0.23816       -5.40834        2.67122
H          0.63971       -3.93832        3.54798
H         -0.33310       -5.18946        4.32248
H          0.78493       -3.55217       -2.92480
H          0.40338       -5.11540       -2.21753
H         -0.11794       -4.74457       -3.85895
H         -2.59795       -5.20776       -3.28614
H         -2.07344       -5.68910       -1.68042
H         -3.30459       -4.44576       -1.85992
H         -2.09003       -3.08250       -4.24058
H         -2.64766       -2.12474       -2.87085
H         -1.01063       -1.91922       -3.49993
H         -0.14824       -6.65795       -0.74995
H          0.66685       -5.42595        0.24373
H         -0.19242       -6.78438        1.01038
C          5.73811        1.64124       -2.48918
C          3.87429       -1.69472       -3.12910
C          5.93335       -1.63589       -1.68739
C          3.95549       -2.93510       -0.94828
C          6.25499        2.74417        0.66290
C          4.32959        4.22874        0.02793
C          4.39123        3.08050        2.26024
H          4.18623       -0.81496       -3.68835
H          4.24936       -2.57491       -3.65059
H          2.78549       -1.73016       -3.14950
H          6.31974       -1.53440       -0.67385
H          6.33230       -2.55611       -2.11353
H          6.31941       -0.80700       -2.27582
H          4.23650       -2.89236        0.10360
H          2.87888       -3.08778       -1.00344
H          4.42863       -3.81324       -1.38702
H          6.78638        3.54812        1.17169
H          6.55192        1.79933        1.11673
H          6.58667        2.73525       -0.37261
H          4.56999        4.17182       -1.03186
H          3.25867        4.40889        0.11596
H          4.85033        5.09067        0.44429
H          3.34469        3.33659        2.41641
H          4.98920        3.86637        2.72103
H          4.59322        2.15011        2.79026
H          6.74390        1.75827       -2.89318
H          5.13317        1.06655       -3.18847
H          5.28550        2.62284       -2.36014
