45
-71.81449053
C          0.32098        0.57317        2.47554
P          0.94611        0.60884        0.76119
P         -1.62543        0.26806       -1.04712
C         -2.42602       -0.05467       -2.65347
Cl         1.77304       -2.35944        0.44433
H          0.69451        1.43247        3.02506
H         -3.25162        0.63469       -2.80514
Cl        -1.13485       -2.82963       -1.36915
C          0.29039        2.02546       -0.14633
C         -0.81301        1.87743       -0.95871
C         -1.32026        2.96220       -1.64400
C         -0.70808        4.19748       -1.52405
C          0.40217        4.34415       -0.71503
C          0.90237        3.25568       -0.02226
H         -2.19480        2.83944       -2.26195
H         -1.10042        5.04606       -2.05996
H          0.87846        5.30621       -0.62148
H          1.76764        3.35462        0.61351
Pd         0.05303       -1.19278       -0.40053
H         -2.80762       -1.07146       -2.67545
H          0.64621       -0.33732        2.97071
H         -1.70541        0.06896       -3.45683
C         -4.43010       -0.22707        2.49452
C         -3.96105        1.02853        2.16020
C         -3.11810        1.18272        1.07441
C         -2.75628        0.08272        0.33153
C         -3.21277       -1.17077        0.66625
C         -4.05624       -1.32881        1.75011
H         -5.08642       -0.34792        3.34084
H         -4.24907        1.88682        2.74471
H         -2.73628        2.15440        0.80561
H         -2.88148       -2.01957        0.08977
H         -4.41450       -2.30973        2.01590
C          5.48069        0.49666        0.40461
C          4.89463        0.32669        1.64340
C          3.51741        0.36550        1.76686
C          2.73774        0.57648        0.65253
C          3.31676        0.74153       -0.58517
C          4.69415        0.70364       -0.71120
H          6.55365        0.46399        0.30797
H          5.50863        0.15940        2.51309
H          3.04933        0.22474        2.72743
H          2.68746        0.89743       -1.44764
H          5.15052        0.83208       -1.67891
H         -0.76477        0.60145        2.47318
