72
-98.10113781
Fe        -0.01111        2.78424       -0.05005
P          1.87227       -0.05921       -0.05437
P         -1.83432       -0.08276       -0.05179
C          1.44070        1.58929        0.62914
C          0.49421        1.84815        1.69987
C          0.41816        3.28673        1.88521
C          1.36837        3.91551        0.98552
C          2.00464        2.86428        0.21048
C         -1.40170        1.55119       -0.75749
C         -2.01658        2.82593       -0.42403
C         -1.34669        3.85735       -1.19843
C         -0.35551        3.21951       -2.04592
C         -0.39000        1.79382       -1.77202
C          3.20838       -0.77548        1.01643
C          4.42993        0.03708        0.55332
C          2.94131        0.19489       -1.55807
C          4.34922        0.41888       -0.95531
C         -3.25968       -0.77826       -1.01159
C         -4.46962       -0.26602       -0.21285
C         -2.67929        0.12277        1.59098
C         -4.16036       -0.20165        1.30533
H         -0.05769        1.09769        2.26364
H         -0.20539        3.80289        2.61906
H          1.57016        4.98612        0.90633
H          2.76619        3.00517       -0.55914
H         -2.83075        2.97638        0.28810
H          0.23956        1.03436       -2.23606
Cl         1.60145       -3.07661       -0.38127
Cl        -1.59165       -3.04754        0.30220
Pd         0.02597       -1.50878       -0.01651
H          3.32310       -1.82778        0.73186
C          2.92842       -0.66241        2.51298
H          2.57628        1.09631       -2.06454
C          2.92337       -0.98852       -2.52406
H          5.36019       -0.50946        0.77317
H          4.48126        0.95130        1.16288
H          4.66962        1.46096       -1.10259
H          5.07410       -0.18130       -1.52310
H         -1.57878        4.92455       -1.17740
H          0.30122        3.72110       -2.76013
H          3.87145       -0.79450        3.06155
H          3.73422       -0.86185       -3.25503
H         -3.19124       -1.86988       -0.94126
C         -3.26832       -0.34922       -2.47429
H         -2.55428        1.17639        1.86737
C         -2.07227       -0.77962        2.65966
H         -5.35243       -0.89359       -0.41061
H         -4.73279        0.73665       -0.57849
H         -4.81682        0.52437        1.80756
H         -4.40114       -1.17257        1.75891
H         -4.23214       -0.62598       -2.92380
H         -0.98312       -0.66383        2.66261
C          1.90273       -1.66616        3.01275
H          0.94957       -1.54564        2.50130
H          2.23215       -2.69089        2.83102
H          1.71479       -1.56454        4.08400
C          1.60850       -1.17911       -3.25836
H          1.33525       -0.28682       -3.82449
H          1.65090       -2.01329       -3.96246
H          0.79936       -1.39100       -2.56169
C         -2.12894       -0.95301       -3.27517
H         -1.16719       -0.65111       -2.86413
H         -2.16100       -2.04390       -3.25032
H         -2.15059       -0.64372       -4.32259
C         -2.62553       -0.51123        4.05093
H         -2.43613        0.51941        4.35705
H         -3.70567       -0.66341        4.08600
H         -2.17766       -1.16508        4.80274
H          2.60703        0.36268        2.73754
H          3.18064       -1.89751       -1.96510
H         -3.23089        0.74696       -2.52254
H         -2.24249       -1.82634        2.37563
