59
-75.79913330
Cl         1.48596        0.24716        2.42873
P          1.51583       -0.23504       -0.78576
P         -1.66197        0.02805       -0.81834
C          0.59530       -0.58134       -2.35122
H          1.24079       -0.32982       -3.19762
H          0.44377       -1.66161       -2.39096
C         -0.72178        0.14964       -2.40581
H         -1.35712       -0.19934       -3.22469
H         -0.56425        1.21834       -2.57003
C          2.94230       -1.40649       -0.62001
H          2.89365       -2.08541       -1.48077
C          2.41713        1.38492       -0.72160
H          1.92129        1.99904        0.04017
C         -2.85674       -1.38144       -0.61991
H         -2.72069       -1.74304        0.40709
C         -2.84393        1.45236       -0.72666
H         -2.93265        1.83677       -1.75026
C          4.16936       -0.47691       -0.71190
H          4.99065       -0.88727       -0.10631
H          4.54681       -0.45505       -1.74492
C          3.82768        0.96858       -0.25977
H          4.57540        1.67812       -0.64095
H          3.89277        1.03009        0.83678
C         -4.22615       -0.69116       -0.75092
H         -4.54568       -0.73574       -1.80129
H         -4.99051       -1.24551       -0.18511
C         -4.16128        0.79018       -0.29085
H         -4.23430        0.83626        0.80454
H         -5.02321        1.36019       -0.66987
C          2.89288       -2.21185        0.67403
H          2.85935       -1.51432        1.52041
H          3.83861       -2.75935        0.79087
C          2.39265        2.10497       -2.06581
H          2.94295        1.50145       -2.79955
H          1.36099        2.14077       -2.43721
C         -2.63951       -2.53023       -1.60251
H         -3.56394       -3.12023       -1.67389
H         -2.48527       -2.11705       -2.60708
C         -2.35571        2.55680        0.20298
H         -3.16169        3.29008        0.34531
H         -2.17698        2.12919        1.19767
C          1.72533       -3.18329        0.74332
H          1.74218       -3.88249       -0.09482
H          0.77010       -2.65961        0.70902
H          1.73692       -3.77170        1.66359
C          2.95900        3.51681       -2.00450
H          4.00592        3.51907       -1.69775
H          2.41214        4.12822       -1.28408
H          2.90326        4.02170       -2.97169
C         -1.48573       -3.43749       -1.20670
H         -0.56308       -2.87233       -1.08586
H         -1.30171       -4.21855       -1.94790
H         -1.68051       -3.92969       -0.25176
C         -1.10210        3.25118       -0.30569
H         -1.27532        3.72029       -1.27605
H         -0.75548        4.02808        0.37944
H         -0.28461        2.54179       -0.43555
Cl        -1.75888        0.01481        2.36615
Pd        -0.09082       -0.06560        0.86485
