105
-153.07191621
Cl        -0.01361        1.87054        3.03684
Pd        -0.61541        1.12607        0.99013
P         -1.24641        0.48890       -1.16125
N         -0.95413       -1.07433       -1.90451
C          0.07616       -1.97711       -1.62438
C          0.32089       -2.47593       -0.31708
C          1.34701       -3.42265       -0.12038
C          1.56805       -3.98118        1.26551
C          2.45175       -5.23720        1.31542
C          3.67416       -5.08387        0.40615
C          3.24071       -4.85417       -1.04931
C          2.11842       -3.85788       -1.20139
C          1.83837       -3.37910       -2.47475
C          0.83573       -2.46966       -2.68569
H          0.63491       -2.10712       -3.67870
H          2.42773       -3.73081       -3.30467
H          4.09475       -4.51852       -1.65151
H          4.27520       -4.23167        0.74720
H          2.75968       -5.45783        2.34726
H          2.01449       -3.19562        1.88581
C         -0.62107       -2.19003        0.79162
C         -0.14938       -1.60212        1.99921
C         -1.02780       -1.51262        3.08398
C         -2.32411       -1.94561        2.98093
C         -2.80655       -2.51253        1.80782
C         -4.23937       -2.99155        1.79108
C         -4.74350       -3.46479        0.41715
C         -3.65259       -4.23097       -0.33569
C         -2.41731       -3.34337       -0.54324
C         -1.95001       -2.65057        0.71312
H         -1.59169       -3.93818       -0.95356
H         -4.03070       -4.60927       -1.29604
H         -5.05079       -2.59826       -0.18107
H         -4.88101       -2.18722        2.17290
H         -2.98878       -1.85000        3.82288
H         -0.68112       -1.05696        3.99488
N          1.12710       -1.03171        2.10959
P          1.55227        0.17619        0.89816
C          2.65675       -0.39988       -0.38168
C          2.49743        0.07865       -1.65743
C          3.38793       -0.29622       -2.64644
C          4.44664       -1.14649       -2.35530
C          4.61091       -1.58790       -1.04862
C          3.71679       -1.21274       -0.06182
H          3.84003       -1.54561        0.95647
H          5.44253       -2.22815       -0.80897
C          5.40946       -1.54761       -3.41742
H          3.26289        0.06823       -3.65164
H          1.67542        0.73957       -1.87023
C          2.39454        1.59911        1.60142
C          3.17614        1.46900        2.72380
C          3.82484        2.57706        3.23804
C          3.70349        3.81646        2.62342
C          2.91211        3.92463        1.48781
C          2.26464        2.81608        0.97399
H          1.65077        2.89630        0.09010
H          2.80206        4.88331        1.01037
C          4.37424        5.01645        3.19567
H          4.42854        2.48577        4.12478
H          3.27954        0.50394        3.19250
H          1.31448       -0.58186        2.99628
H         -1.23531       -0.96305       -2.87021
C         -0.52349        1.82405       -2.11753
C         -0.55730        3.09866       -1.60229
C          0.03217        4.13860       -2.29591
C          0.64622        3.91051       -3.51994
C          0.65920        2.61938       -4.03069
C          0.06902        1.58096       -3.33408
H          0.08994        0.57740       -3.72520
H          1.14117        2.43110       -4.97486
C          1.31323        5.02251       -4.25206
H          0.01912        5.13531       -1.88900
H         -1.05691        3.27316       -0.66213
C         -3.02833        0.70050       -1.18272
C         -3.61454        1.50833       -2.12803
C         -4.98787        1.67242       -2.13666
C         -5.78268        1.02442       -1.20073
C         -5.17081        0.21868       -0.25081
C         -3.79814        0.05206       -0.24952
H         -3.31723       -0.56810        0.48778
H         -5.77580       -0.26892        0.49426
C         -7.25793        1.22547       -1.18475
H         -5.45061        2.31207       -2.86865
H         -2.99599        2.01360       -2.85226
Cl        -2.51348        2.31556        1.23240
H          2.92455       -5.80502       -1.49467
H          1.86630       -6.10674        0.99122
H          4.33303       -5.96014        0.48605
H          0.59177       -4.19308        1.71951
H         -3.36842       -5.11994        0.24127
H         -2.63643       -2.58106       -1.29958
H         -4.33588       -3.80828        2.51648
H         -5.64761       -4.08070        0.52397
H          5.84201       -2.52681       -3.20706
H          4.91930       -1.60541       -4.39035
H          6.22544       -0.82765       -3.49296
H          5.28740        4.74258        3.72591
H          4.64634        5.72601        2.41300
H          3.71642        5.52769        3.89980
H          1.28980        4.85472       -5.32973
H          0.82002        5.97539       -4.05502
H          2.35689        5.11449       -3.94821
H         -7.77329        0.32700       -0.84221
H         -7.52903        2.04441       -0.51715
H         -7.63466        1.46377       -2.18039
