87
-129.18181970
P         -1.81193       -0.27175        0.03962
P          1.47467        0.29198       -0.07559
C         -1.51326        1.10578       -1.09678
C          1.16011       -0.61012       -1.59771
C         -0.59182        1.07445       -2.14237
C         -0.35311        2.25487       -2.87296
C         -1.05420        3.40501       -2.55571
C         -1.96954        3.41651       -1.52688
C         -2.18876        2.26526       -0.79659
C          1.91094       -1.72148       -1.89241
C          1.68499       -2.41936       -3.06224
C          0.70235       -1.99561       -3.93213
C         -0.06737       -0.87821       -3.65321
C          0.17056       -0.16110       -2.46335
Cl         1.30377        1.05356        3.05531
Cl        -1.46357       -0.67266        3.23381
H         -2.50326        4.32102       -1.28512
H         -2.88919        2.27329        0.02243
H          2.68139       -2.04082       -1.21064
H          2.27177       -3.29363       -3.29180
H         -0.86904        4.30230       -3.12164
H          0.51882       -2.54067       -4.84248
C         -1.07101       -4.47218       -1.52927
C         -0.56525       -4.10143       -0.29097
C         -0.82417       -2.81691        0.17064
C         -1.55112       -1.93197       -0.59237
C         -2.07505       -2.31754       -1.80341
C         -1.83231       -3.59388       -2.27557
H         -0.86612       -5.46073       -1.90350
C          0.26937       -5.04044        0.50665
H         -0.48381       -2.51854        1.14757
H         -2.65180       -1.61285       -2.38087
H         -2.22549       -3.89753       -3.23189
C         -5.98044        0.06192        1.84278
C         -4.96289        0.85834        2.32917
C         -3.69221        0.75700        1.79530
C         -3.44762       -0.13773        0.77945
C         -4.46081       -0.93201        0.29339
C         -5.74292       -0.85063        0.82450
H         -6.97215        0.14186        2.25446
H         -5.15709        1.55616        3.12716
H         -2.88558        1.36113        2.17945
H         -4.25610       -1.62610       -0.50379
C         -6.84267       -1.69533        0.28392
C          4.79897       -1.75671        2.27418
C          3.63462       -2.44288        1.99135
C          2.62698       -1.82382        1.27721
C          2.79278       -0.52896        0.84426
C          3.95066        0.15722        1.12725
C          4.97043       -0.44471        1.85462
H          5.58690       -2.23701        2.82897
H          3.50968       -3.45887        2.32847
H          1.71369       -2.34739        1.04859
H          4.06309        1.17302        0.78854
C          6.23012        0.29313        2.14386
C          2.69688        4.55141       -1.06880
C          1.81745        4.32218       -0.02892
C          1.44955        3.02897        0.28977
C          1.95928        1.97960       -0.43757
C          2.84267        2.20197       -1.46807
C          3.21981        3.49720       -1.80503
H          2.98895        5.55782       -1.31606
H          1.42099        5.14934        0.53672
H          0.77941        2.83182        1.11041
H          3.23442        1.36383       -2.02102
C          4.18624        3.74416       -2.90942
Pd        -0.13281        0.11416        1.61180
C          0.64034        2.30015       -3.98233
C         -1.12943       -0.46606       -4.61233
H          1.24466        3.20648       -3.92479
H          1.32186        1.44981       -3.94576
H          0.14123        2.29203       -4.95201
H         -0.69286       -0.03429       -5.51377
H         -1.73627       -1.32197       -4.91133
H         -1.79933        0.27443       -4.17387
H          1.31460       -4.98525        0.19883
H          0.21949       -4.80505        1.57078
H         -0.06632       -6.07049        0.37892
H         -7.57432       -1.93154        1.05790
H         -7.36256       -1.18248       -0.52649
H         -6.45809       -2.63873       -0.10648
H          6.04033        1.36095        2.26221
H          6.69364       -0.06414        3.06449
H          6.94863        0.16627        1.33286
H          3.94498        4.66409       -3.44401
H          5.20187        3.83547       -2.52186
H          4.17474        2.92792       -3.63332
