59
-75.80089073
Cl         1.74220       -0.03065        2.32208
P          1.60398       -0.08748       -0.87109
P         -1.58892       -0.14200       -0.76494
C          0.57743        0.25443       -2.36772
H          0.31544        1.31493       -2.38602
H          1.17421        0.04780       -3.26165
C         -0.65694       -0.59846       -2.29056
H         -0.39371       -1.65772       -2.23095
H         -1.31347       -0.46720       -3.15662
C          2.66562       -1.57141       -1.23314
H          2.65944       -1.63038       -2.33037
C          2.94469        1.15803       -0.54152
H          2.91769        1.34612        0.53884
C         -2.96679       -1.31427       -0.38087
H         -3.12905       -1.24249        0.70192
C         -2.60019        1.37456       -1.11569
H         -2.30336        1.71483       -2.11514
C          4.06291       -1.12849       -0.77048
H          4.20694       -1.41124        0.27964
H          4.84184       -1.66793       -1.33069
C          4.23552        0.40650       -0.91273
H          4.50048        0.65006       -1.95074
H          5.07740        0.76596       -0.30175
C         -4.14738       -0.68260       -1.13668
H         -4.13278       -1.04036       -2.17593
H         -5.10314       -1.03200       -0.71619
C         -4.05951        0.86821       -1.11401
H         -4.55936        1.24039       -0.20958
H         -4.61888        1.30357       -1.95529
C          2.17504       -2.90082       -0.65831
H          2.83447       -3.70311       -1.01745
H          1.19216       -3.12880       -1.09050
C          2.75823        2.46944       -1.29742
H          3.69301        3.04531       -1.24920
H          2.61176        2.24782       -2.36247
C         -2.65749       -2.75480       -0.76519
H         -3.57579       -3.35413       -0.69347
H         -2.37434       -2.78848       -1.82502
C         -2.33487        2.46351       -0.08301
H         -2.66354        2.10298        0.90081
H         -1.25317        2.61281        0.01992
C          2.09544       -2.96038        0.85897
H          3.07431       -2.83735        1.32385
H          1.69385       -3.91449        1.20854
H          1.45250       -2.17661        1.25638
C          1.61019        3.30808       -0.76056
H          1.48471        4.23966       -1.31707
H          1.76770        3.56887        0.28780
H          0.66804        2.76489       -0.81458
C         -1.56760       -3.36360        0.10172
H         -0.66147       -2.75893        0.06877
H         -1.30507       -4.37612       -0.21301
H         -1.87564       -3.41197        1.14796
C         -3.01374        3.78295       -0.41857
H         -2.81103        4.55009        0.33223
H         -2.67191        4.16723       -1.38152
H         -4.09698        3.66752       -0.48494
Cl        -1.53469        0.39061        2.40577
Pd         0.05110        0.09292        0.85131
