105
-153.07009028
Cl         3.14772        0.71825       -1.64549
Pd         0.95662        0.91146       -1.16010
P         -1.42188        0.94965       -0.84552
N         -1.39942       -0.43011       -1.95204
C         -0.46708       -1.44407       -1.68993
C         -0.31345       -2.02611       -0.39886
C          0.65904       -3.02113       -0.18995
C          0.67724       -3.73775        1.14235
C          1.81990       -4.75101        1.33545
C          2.15410       -5.48750        0.03482
C          2.53314       -4.48418       -1.06339
C          1.49892       -3.40394       -1.23711
C          1.34917       -2.81469       -2.48675
C          0.38110       -1.87178       -2.71744
H          0.28496       -1.42143       -3.68972
H          2.00363       -3.11620       -3.28688
H          3.49517       -4.01640       -0.82525
H          2.95795       -6.22054        0.19299
H          2.71567       -4.22734        1.68583
H          0.70273       -2.98580        1.94008
C         -1.33347       -1.80086        0.65466
C         -1.07150       -1.00882        1.80084
C         -1.97990       -1.04704        2.85862
C         -3.12163       -1.80168        2.79193
C         -3.41909       -2.55336        1.66356
C         -4.70689       -3.33910        1.64968
C         -4.77924       -4.40083        0.54152
C         -4.25506       -3.84113       -0.78398
C         -2.79667       -3.37805       -0.64474
C         -2.52598       -2.55162        0.58988
H         -2.13048       -4.24872       -0.63541
H         -4.87830       -2.99152       -1.09007
H         -5.80542       -4.77782        0.42654
H         -5.54142       -2.63610        1.54232
H         -3.81527       -1.80093        3.61573
H         -1.78334       -0.44724        3.73032
N          0.00556       -0.14159        1.92602
P          1.44941        0.19430        0.98752
C          2.70431       -1.00824        1.43745
C          2.72715       -1.46399        2.73470
C          3.72044       -2.33684        3.14297
C          4.69729       -2.76071        2.25192
C          4.66963       -2.27427        0.95239
C          3.67778       -1.40057        0.55054
H          3.67456       -0.99649       -0.44677
H          5.43634       -2.57707        0.25983
C          5.77408       -3.69146        2.68888
H          3.74110       -2.69506        4.15798
H          1.96971       -1.13115        3.42606
C          2.05500        1.78269        1.56231
C          3.39967        2.06698        1.56249
C          3.83482        3.32000        1.95367
C          2.92531        4.29871        2.33259
C          1.57122        3.99101        2.32692
C          1.13881        2.73623        1.93783
H          0.08877        2.49435        1.92106
H          0.85791        4.73964        2.62676
C          3.39767        5.64141        2.77046
H          4.88701        3.54798        1.96058
H          4.10154        1.31249        1.24595
H          0.16953        0.25098        2.84486
H         -1.36009       -0.03465       -2.88316
C         -1.58829        2.51025       -1.71618
C         -2.37683        2.59764       -2.83745
C         -2.50542        3.81051       -3.48998
C         -1.85455        4.94153       -3.01484
C         -1.06551        4.83078       -1.87765
C         -0.93855        3.61816       -1.22513
H         -0.32746        3.52887       -0.34053
H         -0.54654        5.69896       -1.50884
C         -1.96484        6.23916       -3.73684
H         -3.11067        3.88464       -4.37725
H         -2.88840        1.71979       -3.19808
C         -2.89267        0.88022        0.17758
C         -2.98091        1.59078        1.35042
C         -4.14944        1.54458        2.08886
C         -5.23903        0.80599        1.64523
C         -5.13435        0.11149        0.44775
C         -3.96319        0.15532       -0.28657
H         -3.86932       -0.38239       -1.21662
H         -5.97087       -0.46860        0.09757
C         -6.47977        0.71945        2.46352
H         -4.22041        2.08002        3.02016
H         -2.13769        2.17151        1.68603
Cl         0.66747        1.73703       -3.24096
H          2.68480       -5.00091       -2.01962
H          1.57314       -5.46638        2.13247
H          1.28134       -6.06855       -0.28883
H         -0.28415       -4.25076        1.26431
H         -4.35481       -4.58417       -1.58780
H         -2.50718       -2.79699       -1.52871
H         -4.84509       -3.80757        2.63259
H         -4.17658       -5.27111        0.83066
H          6.08257       -4.34575        1.87219
H          6.65104       -3.13789        3.02705
H          5.43801       -4.32524        3.51078
H          2.63388        6.40222        2.60350
H          3.64297        5.63822        3.83337
H          4.28982        5.94265        2.21961
H         -1.18097        6.32987       -4.48995
H         -2.92816        6.32912       -4.24079
H         -1.87092        7.08139       -3.04989
H         -6.63691        1.63294        3.03872
H         -7.35760        0.56980        1.83337
H         -6.42267       -0.11451        3.16453
