111
-148.54991687
P         -1.60053        2.69930        0.46144
P         -0.26872       -0.16119        0.54737
C         -1.17547        1.95206        2.06032
C         -0.64936        0.67845        2.09661
C         -0.48029        4.13459        0.13315
C          0.38079        3.87070       -1.08343
C         -1.33669        2.66081        3.23381
H         -1.70590        3.67244        3.19812
C         -0.99825        2.07882        4.44328
H         -1.12879        2.63068        5.35983
C         -0.48688        0.79566        4.47691
H         -0.21863        0.34474        5.41813
C         -0.30174        0.09659        3.29772
H          0.12692       -0.89334        3.30212
Pd        -1.58629        0.92008       -1.01307
Cl        -3.31923        1.75337       -2.16311
Cl        -1.32156       -0.85429       -2.37323
C         -1.45039        5.32351       -0.02335
C         -3.23655        3.56659        0.46542
H          1.02271        4.72504       -1.31066
H          1.01962        2.99731       -0.93739
H         -0.23982        3.67771       -1.96096
H         -1.59218        5.52183       -1.09454
H         -1.00149        6.24052        0.38702
H         -3.65652        3.41275       -0.53703
C         -2.83238        5.04209        0.63292
C         -4.18474        3.03010        1.51620
H          0.13553        4.25161        1.03465
H         -2.79052        5.28164        1.70417
H         -3.60854        5.70106        0.21437
H         -4.35808        1.96000        1.38140
H         -3.78422        3.17213        2.52009
H         -5.15137        3.53723        1.47559
C         -0.68507       -4.68860        0.82784
C         -1.70442       -3.84664        1.34059
C         -1.52597       -2.47502        1.25841
C         -0.42337       -1.94051        0.64427
C          0.51311       -2.74937        0.05585
C          0.39192       -4.12854        0.09458
O         -0.72722       -6.08782        1.06953
C         -2.97920       -4.39822        1.99834
H         -2.24913       -1.79804        1.68052
H          1.34633       -2.28466       -0.44087
C          1.42167       -4.99481       -0.64795
C          3.64837        1.53956       -1.03417
C          2.84034        0.73693       -1.87955
C          1.66620        0.21816       -1.36232
C          1.32263        0.40884       -0.05019
C          2.14313        1.10922        0.79391
C          3.33348        1.65534        0.34413
O          4.74804        2.25828       -1.57481
C          3.17642        0.48423       -3.35723
H          0.96666       -0.30109       -1.99358
H          1.82474        1.24975        1.81191
C          4.22699        2.40912        1.34114
C         -2.73536       -4.58141        3.50398
C         -4.16019       -3.41967        1.80602
C         -3.39873       -5.73529        1.36067
C          0.76960       -6.27805       -1.19404
C          2.00171       -4.23214       -1.86043
C          2.57544       -5.34819        0.30237
C         -0.06706       -6.49363        2.26180
H         -3.62657       -4.96465        4.00028
H         -1.92137       -5.27783        3.68995
H         -2.47125       -3.63210        3.96955
H         -5.09181       -3.86438        2.15517
H         -4.01633       -2.49821        2.36822
H         -4.28462       -3.16488        0.75386
H         -2.65096       -6.50665        1.52667
H         -4.33868       -6.09225        1.78083
H         -3.52877       -5.62249        0.28488
H         -0.07623       -6.03439       -1.83608
H          1.48122       -6.86229       -1.77685
H          0.40528       -6.91129       -0.38879
H          1.20349       -3.84384       -2.49269
H          2.62859       -3.39974       -1.54470
H          2.62347       -4.88745       -2.46997
H          3.32912       -5.94919       -0.20583
H          3.05833       -4.44481        0.67428
H          2.22096       -5.91167        1.16174
H          0.70808       -7.22058        2.01982
H          0.38160       -5.63370        2.76068
H         -0.78178       -6.97089        2.93190
C          4.42283        3.56408       -2.03655
C          2.60898       -0.87568       -3.82324
C          2.54745        1.59352       -4.21434
C          4.69843        0.43217       -3.58142
C          3.80919        3.88734        1.37782
C          4.07503        1.82138        2.76303
C          5.71354        2.28294        0.96203
H          2.94853       -1.67866       -3.17081
H          1.52022       -0.87852       -3.83539
H          2.93996       -1.10615       -4.83557
H          2.75784        1.43663       -5.27189
H          1.46549        1.61271       -4.08459
H          2.93044        2.57258       -3.93718
H          5.16773        1.38508       -3.35129
H          5.15373       -0.32594       -2.94504
H          4.93373        0.19110       -4.61776
H          4.42000        4.44836        2.08460
H          3.91347        4.35230        0.40061
H          2.76692        3.98511        1.68078
H          4.23769        0.74393        2.75645
H          4.80063        2.26516        3.44435
H          3.08734        2.01731        3.17790
H          5.92001        2.74703        0.00113
H          6.00453        1.23514        0.89561
H          6.34945        2.76534        1.70393
H          5.01582        4.30210       -1.49669
H          4.66097        3.64780       -3.09678
H          3.36283        3.76904       -1.88562
