87
-129.18165236
P         -1.56351       -0.31424       -0.34940
P          1.64618        0.42136        0.23279
C         -1.22912        0.97124       -1.55753
C          1.55413       -0.62129       -1.24724
C         -0.14283        0.82273       -2.40961
C          0.10887        1.82261       -3.37059
C         -0.74454        2.91097       -3.44909
C         -1.81993        3.03673       -2.59458
C         -2.05973        2.06110       -1.64709
C          2.31326       -1.76685       -1.18403
C          2.24691       -2.71256       -2.18830
C          1.39454       -2.51550       -3.25178
C          0.60973       -1.37872       -3.33449
C          0.70169       -0.39798       -2.32779
Cl         1.04849       -0.16171        3.34168
Cl        -1.52547       -1.97796        2.41939
H         -2.47072        3.89278       -2.66520
H         -2.90454        2.14392       -0.98380
H          2.95577       -1.92955       -0.33381
H          2.84586       -3.60663       -2.13077
H         -0.55604        3.66842       -4.19083
H          1.32234       -3.25768       -4.02874
C         -2.36935       -4.20721       -2.54354
C         -1.43395       -4.19024       -1.51795
C         -1.21155       -2.99598       -0.84356
C         -1.90937       -1.86140       -1.18562
C         -2.83972       -1.88697       -2.19782
C         -3.07335       -3.06722       -2.87912
H         -2.53988       -5.12408       -3.08162
C         -0.64523       -5.40527       -1.17824
H         -0.48021       -2.95511       -0.05408
H         -3.36567       -0.98179       -2.45846
H         -3.79700       -3.09398       -3.67723
C         -5.07957        0.94097        2.26250
C         -5.15524       -0.22922        1.53283
C         -4.09513       -0.61397        0.73393
C         -2.97152        0.17537        0.66680
C         -2.89242        1.33873        1.39647
C         -3.94430        1.73806        2.21063
H         -5.90533        1.24332        2.88374
H         -6.03814       -0.84467        1.58869
H         -4.13534       -1.53073        0.16891
H         -2.00702        1.94747        1.33148
C         -3.85517        3.00840        2.98078
C          5.76029       -0.00884        2.13255
C          5.48027        1.07193        1.31994
C          4.22504        1.20348        0.75572
C          3.26108        0.25476        1.00689
C          3.53971       -0.82453        1.81314
C          4.79218       -0.96759        2.39755
H          6.73793       -0.11514        2.57099
H          6.23875        1.81228        1.12486
H          3.99165        2.04249        0.12034
H          2.77391       -1.55725        2.00695
C          5.08916       -2.14245        3.26156
C          0.49339        4.80905       -0.04743
C          0.05440        4.03872        1.01113
C          0.42535        2.71054        1.09263
C          1.20575        2.15776        0.10336
C          1.66838        2.92905       -0.93652
C          1.31866        4.27188       -1.02575
H          0.20608        5.84439       -0.11715
H         -0.56555        4.47411        1.77771
H          0.14842        2.10989        1.94449
H          2.29460        2.48210       -1.69015
C          1.79240        5.11329       -2.15823
Pd        -0.09331       -0.54932        1.45342
C          1.26528        1.72928       -4.30401
C         -0.32610       -1.23164       -4.48435
H          1.99636        0.99599       -3.96147
H          0.93653        1.43737       -5.30210
H          1.77691        2.68900       -4.38827
H         -0.86114       -2.16413       -4.66970
H         -1.07288       -0.45934       -4.29764
H          0.21368       -0.96814       -5.39463
H          0.28526       -5.43336       -1.74708
H         -0.39156       -5.42351       -0.11730
H         -1.20520       -6.31456       -1.40101
H         -4.57730        3.02828        3.79812
H         -2.86132        3.13233        3.41364
H         -4.05121        3.86664        2.33646
H          5.35936       -3.00963        2.65742
H          5.91599       -1.93441        3.94202
H          4.22193       -2.41021        3.86697
H          0.97632        5.32887       -2.84912
H          2.18867        6.06386       -1.79830
H          2.58435        4.61483       -2.71886
