59
-75.80507595
Cl         1.70356        0.60380        2.31091
P          1.59897        0.02737       -0.87003
P         -1.55658       -0.06864       -0.79848
C          0.60376        0.47170       -2.35625
H          0.33333        1.52921       -2.29839
H          1.21770        0.33188       -3.25168
C         -0.62050       -0.39598       -2.35572
H         -0.34537       -1.45382       -2.37921
H         -1.27425       -0.20451       -3.21294
C          2.45291       -1.58798       -1.21957
H          2.26136       -1.76199       -2.28718
C          3.09766        1.10414       -0.65460
H          3.21575        1.23832        0.42755
C         -2.71375       -1.44967       -0.37233
H         -2.95692       -1.32199        0.69001
C         -2.83962        1.23225       -1.14956
H         -2.53739        1.71119       -2.08886
C          3.94571       -1.27621       -1.01672
H          4.24918       -1.57650       -0.00678
H          4.55959       -1.88467       -1.69785
C          4.24037        0.23404       -1.20590
H          4.36682        0.45277       -2.27521
H          5.19491        0.51172       -0.73330
C         -3.93810       -1.10816       -1.23529
H         -3.78371       -1.52502       -2.24085
H         -4.83779       -1.60730       -0.84322
C         -4.15141        0.42854       -1.33007
H         -4.86004        0.73923       -0.55015
H         -4.63711        0.69424       -2.28058
C          1.91682       -2.76405       -0.40428
H          2.35846       -3.69502       -0.78631
H          0.84217       -2.85672       -0.60204
C          2.98389        2.46438       -1.33394
H          3.97279        2.94372       -1.33988
H          2.73126        2.31441       -2.39149
C         -2.12462       -2.83411       -0.60440
H         -1.85030       -2.93566       -1.66187
H         -1.18441       -2.91564       -0.04443
C         -2.94307        2.27183       -0.03695
H         -3.84739        2.87512       -0.19930
H         -3.11004        1.75063        0.91502
C          2.15594       -2.67265        1.09682
H          1.81703       -1.71947        1.50002
H          3.21338       -2.76608        1.34792
H          1.63015       -3.46065        1.64117
C          1.97169        3.37986       -0.66759
H          1.90937        4.35335       -1.15931
H          2.22510        3.55407        0.37988
H          0.97617        2.93962       -0.68604
C         -3.06616       -3.95737       -0.19683
H         -3.34093       -3.87743        0.85666
H         -2.61763       -4.94230       -0.34577
H         -3.99199       -3.92934       -0.77412
C         -1.73413        3.18518        0.06874
H         -1.86988        3.95769        0.82913
H         -0.84074        2.62479        0.33910
H         -1.53221        3.68733       -0.87928
Cl        -1.55410        0.18561        2.43027
Pd         0.04615        0.17756        0.86241
