59
-75.79810127
Cl         1.78090        0.36960        2.30829
P          1.62484       -0.05522       -0.80970
P         -1.54797       -0.22966       -0.72573
C          0.62227        0.03878       -2.36235
H          0.34824        1.07956       -2.54470
H          1.24684       -0.28302       -3.20173
C         -0.60594       -0.81250       -2.20401
H         -0.33038       -1.85822       -2.05229
H         -1.26042       -0.76526       -3.07980
C          2.80643       -1.47190       -0.96428
H          2.47592       -2.08546       -1.81180
C          2.82792        1.34030       -0.57338
H          2.62984        1.75291        0.42405
C         -3.02857       -1.25343       -0.27079
H         -2.90163       -1.52657        0.78455
C         -2.37884        1.37322       -1.12559
H         -1.93477        1.75602       -2.05268
C          4.13594       -0.75692       -1.27667
H          4.98047       -1.38431       -0.95498
H          4.24931       -0.64166       -2.36509
C          4.20353        0.63990       -0.60318
H          4.93310        1.28071       -1.11879
H          4.58648        0.52843        0.42193
C         -4.20915       -0.27113       -0.43873
H         -5.07808       -0.80506       -0.84937
H         -4.53172        0.09471        0.54715
C         -3.84246        0.94089       -1.33797
H         -4.51811        1.78564       -1.14176
H         -4.00121        0.67259       -2.39321
C          2.84911       -2.31672        0.30563
H          2.98293       -1.64857        1.16658
H          3.74819       -2.94852        0.28760
C          2.66488        2.44757       -1.61154
H          3.57161        3.06841       -1.62244
H          2.61641        1.99374       -2.60976
C         -3.15328       -2.52406       -1.10833
H         -4.18031       -2.90742       -1.03062
H         -3.02327       -2.26520       -2.16696
C         -2.18093        2.37536        0.00753
H         -2.67855        1.99075        0.90791
H         -1.11518        2.41806        0.26979
C          1.61630       -3.18814        0.49317
H          1.49454       -3.88389       -0.33922
H          0.70749       -2.58911        0.54436
H          1.66803       -3.77868        1.41063
C          1.45072        3.32906       -1.35356
H          0.53134        2.74577       -1.31344
H          1.32362        4.09043       -2.12643
H          1.53612        3.84556       -0.39547
C         -2.17480       -3.61235       -0.69124
H         -1.14312       -3.26647       -0.74186
H         -2.25477       -4.50034       -1.32240
H         -2.35109       -3.92576        0.33961
C         -2.68364        3.77313       -0.32429
H         -2.50322        4.47593        0.49231
H         -2.18713        4.16865       -1.21247
H         -3.75579        3.77833       -0.52594
Cl        -1.58523       -0.06055        2.41855
Pd         0.07341       -0.03019        0.91210
