59
-75.79830591
Cl         1.56476        0.88452        2.28103
P          1.61017        0.00405       -0.77658
P         -1.57758       -0.12074       -0.83774
C          0.68861        0.60027       -2.26225
H          0.50499        1.66861       -2.13308
H          1.33564        0.48813       -3.13733
C         -0.60279       -0.15940       -2.41396
H         -0.40220       -1.20571       -2.65488
H         -1.22473        0.23961       -3.22109
C          2.21266       -1.71898       -1.10234
H          1.72444       -2.01767       -2.03905
C          3.24608        0.84356       -0.59545
H          3.50634        0.78233        0.46833
C         -2.44542       -1.71040       -0.43592
H         -2.19232       -1.93406        0.60781
C         -3.03410        1.02230       -0.92700
H         -3.20488        1.21123       -1.99378
C          3.73399       -1.55990       -1.32541
H          4.27421       -2.04068       -0.50112
H          4.04634       -2.11171       -2.22455
C          4.16701       -0.06956       -1.42382
H          4.13102        0.25753       -2.47273
H          5.21494        0.05899       -1.11130
C         -3.93515       -1.34468       -0.55971
H         -4.28771       -1.62841       -1.56081
H         -4.53559       -1.94098        0.14401
C         -4.17588        0.17277       -0.34047
H         -4.24856        0.37749        0.73674
H         -5.14241        0.48388       -0.76558
C          1.82307       -2.67200        0.02750
H          2.09376       -3.69828       -0.25766
H          0.72880       -2.67601        0.12173
C          3.22326        2.29953       -1.04375
H          4.25467        2.67498       -1.09842
H          2.84445        2.34993       -2.07264
C         -2.01498       -2.86245       -1.33699
H         -2.28011       -2.61862       -2.37416
H         -0.92043       -2.94210       -1.32954
C         -2.81930        2.33980       -0.18991
H         -3.77016        2.88987       -0.15945
H         -2.57929        2.12420        0.85881
C          2.43837       -2.33733        1.37994
H          2.23549       -1.30512        1.66367
H          3.52206       -2.45981        1.37997
H          2.04553       -2.97546        2.17493
C          2.39519        3.18589       -0.12656
H          1.36724        2.83009       -0.05530
H          2.36339        4.22177       -0.47161
H          2.79805        3.18782        0.88799
C         -2.63290       -4.19288       -0.93376
H         -2.35960       -4.45941        0.08902
H         -2.30956       -5.00915       -1.58382
H         -3.72285       -4.15358       -0.97515
C         -1.73699        3.20834       -0.80668
H         -0.77047        2.70755       -0.77489
H         -1.95361        3.42905       -1.85356
H         -1.62659        4.16095       -0.28341
Cl        -1.71947        0.38054        2.30458
Pd        -0.03168        0.25737        0.83438
