171
-217.83692224
P         -1.69138        0.66737        0.25268
P          1.53749       -0.16320       -0.26687
C         -0.91861        1.89008       -0.82491
C          0.68765       -0.72756       -1.74659
C         -0.21970        1.57748       -1.98533
C          0.42815        2.61642       -2.67994
C          0.32982        3.91539       -2.21029
C         -0.37359        4.20588       -1.06171
C         -0.98719        3.18394       -0.36425
C          0.85754       -2.01773       -2.18325
C          0.21866       -2.45144       -3.32794
C         -0.59121       -1.58223       -4.02930
C         -0.77984       -0.27693       -3.60335
C         -0.10813        0.16900       -2.44865
Cl         2.05889        1.04801        2.72868
Cl        -0.98794        0.05762        3.46544
C         -1.66572        0.63678       -4.37595
C          1.23262        2.35676       -3.90390
H         -0.43645        5.22038       -0.70336
H         -1.51865        3.39085        0.55307
H          1.49968       -2.68374       -1.63256
H          0.35119       -3.46492       -3.66983
H          0.82401        4.70406       -2.75243
H         -1.08169       -1.91466       -4.92818
C         -2.91827       -3.36805       -1.39921
C         -3.52191       -2.21800       -1.89124
C         -3.09113       -0.99594       -1.39074
C         -2.11135       -0.93987       -0.43031
C         -1.54490       -2.08994        0.06663
C         -1.93502       -3.33282       -0.41686
H         -3.24398       -4.31635       -1.78300
H         -3.52963       -0.07603       -1.73515
H         -0.81046       -2.02012        0.84970
C         -5.60807        2.43388        1.68941
C         -4.78571        1.81701        2.62383
C         -3.58063        1.29208        2.17812
C         -3.22060        1.38971        0.85871
C         -4.04313        2.00793       -0.05117
C         -5.26108        2.54392        0.34872
H         -6.54828        2.83945        2.01535
H         -2.90283        0.80733        2.85601
H         -3.72103        2.07411       -1.07651
C          3.83416       -3.66608        1.55406
C          2.82704       -3.08240        2.31135
C          2.11776       -2.03086        1.75061
C          2.41915       -1.55535        0.49550
C          3.43734       -2.13318       -0.22339
C          4.14961       -3.21473        0.27887
H          4.39211       -4.48228        1.97048
H          1.33423       -1.57440        2.32606
H          3.68646       -1.73380       -1.19028
C          4.59991        2.91197       -1.58284
C          4.45413        1.74350       -2.32269
C          3.50063        0.82509       -1.90024
C          2.75398        1.05633       -0.76996
C          2.92027        2.21052       -0.04918
C          3.84126        3.16918       -0.44651
H          5.32817        3.63571       -1.89382
H          3.33119       -0.07487       -2.46667
H          2.33933        2.35660        0.84377
Pd         0.20581        0.43645        1.60298
C         -4.13105       -2.95850       -4.21068
C         -4.66317       -2.32602       -2.91328
C         -5.26131       -0.94436       -3.24538
C         -5.78527       -3.20608       -2.33030
H         -3.34806       -2.34023       -4.64655
H         -3.71341       -3.94764       -4.02620
H         -4.92625       -3.06265       -4.94866
H         -6.07766       -1.03779       -3.96142
H         -5.65988       -0.46609       -2.35077
H         -4.51350       -0.28542       -3.68442
H         -6.62603       -3.27370       -3.02052
H         -5.43558       -4.21871       -2.13351
H         -6.15165       -2.78969       -1.39209
C         -1.78904       -4.67885        1.68046
C         -1.35314       -4.61087        0.20597
C          0.18296       -4.58776        0.11541
C         -1.85418       -5.87885       -0.51235
H         -2.87560       -4.70990        1.75858
H         -1.39010       -5.56855        2.16713
H         -1.44340       -3.80603        2.23234
H          0.50566       -4.57654       -0.92470
H          0.59547       -3.70973        0.60728
H          0.61667       -5.46827        0.58897
H         -2.93625       -5.97784       -0.42918
H         -1.58725       -5.86083       -1.56897
H         -1.40904       -6.77189       -0.07372
C         -5.42202        3.15352        4.64801
C         -5.22236        1.73117        4.09328
C         -4.16693        1.01430        4.95864
C         -6.54349        0.94594        4.18589
H         -5.71394        3.12552        5.69768
H         -4.50021        3.72955        4.56911
H         -6.19796        3.68726        4.10054
H         -4.00361       -0.00636        4.61349
H         -3.21405        1.54247        4.93378
H         -4.48850        0.96316        5.99868
H         -6.42398       -0.05697        3.77637
H         -6.86930        0.85131        5.22160
H         -7.33884        1.44146        3.63039
C         -6.48372        4.66919       -0.18271
C         -6.21729        3.22362       -0.64119
C         -7.54065        2.43815       -0.68575
C         -5.62612        3.26561       -2.06458
H         -5.55168        5.23075       -0.12122
H         -7.14301        5.18453       -0.88100
H         -6.95473        4.69391        0.79919
H         -7.36541        1.40650       -0.99057
H         -8.02317        2.42070        0.29082
H         -8.23695        2.88621       -1.39442
H         -4.68686        3.81824       -2.08300
H         -5.44341        2.26063       -2.44439
H         -6.31212        3.75761       -2.75395
C          1.02842       -3.91919        3.85391
C          2.50929       -3.51323        3.75096
C          2.78375       -2.32927        4.69759
C          3.37360       -4.70916        4.19334
H          0.78330       -4.24739        4.86376
H          0.37169       -3.08546        3.60944
H          0.80770       -4.73867        3.17099
H          2.15710       -1.47274        4.45113
H          2.58352       -2.60215        5.73339
H          3.82370       -2.01197        4.62533
H          3.20880       -5.57146        3.54743
H          4.43364       -4.45709        4.17206
H          3.12736       -5.00786        5.21222
C          4.76579       -4.12410       -1.98362
C          5.27877       -3.83010       -0.55962
C          5.78571       -5.15191        0.04948
C          6.44834       -2.83283       -0.62372
H          4.47386       -3.21193       -2.50204
H          5.53659       -4.60903       -2.58237
H          3.89883       -4.78385       -1.95143
H          6.54645       -5.60389       -0.58694
H          6.23530       -4.98942        1.02869
H          4.97231       -5.86951        0.15639
H          6.12884       -1.88410       -1.05206
H          6.83747       -2.63102        0.37406
H          7.26336       -3.22217       -1.23356
C          6.32974        2.55216       -3.84613
C          5.34102        1.41227       -3.53431
C          4.46842        1.17392       -4.78037
C          6.14721        0.13684       -3.22747
H          5.80150        3.47801       -4.07337
H          6.99979        2.73202       -3.00564
H          6.94596        2.30355       -4.71013
H          3.75221        0.36958       -4.61727
H          3.91520        2.07398       -5.04452
H          5.08372        0.90022       -5.63736
H          6.81738       -0.11028       -4.05063
H          6.74976        0.26922       -2.32909
H          5.48722       -0.71507       -3.06916
C          5.04830        5.39901       -0.20861
C          4.00207        4.44291        0.39501
C          4.45268        4.05433        1.81557
C          2.65160        5.17939        0.46461
H          6.03113        4.92998       -0.25057
H          4.76566        5.70313       -1.21634
H          5.14027        6.30187        0.39503
H          3.71697        3.41589        2.30330
H          5.39679        3.51102        1.78451
H          4.59120        4.93862        2.43717
H          2.73536        6.09473        1.05003
H          2.30945        5.44779       -0.53443
H          1.88468        4.55836        0.92601
H         -2.46837        0.08519       -4.86705
H          2.19309        2.86983       -3.84149
H         -1.10443        1.16290       -5.14891
H         -2.12635        1.38196       -3.72534
H          0.71742        2.71837       -4.79489
H          1.43188        1.29267       -4.03499
