59
-75.79851553
Cl         1.39353        0.48984        2.41938
P          1.44309        0.01492       -0.85673
P         -1.72336       -0.19866       -0.80786
C          0.43405        0.32671       -2.37473
H          0.12733        1.37522       -2.38640
H          1.05899        0.15744       -3.25741
C         -0.76698       -0.57331       -2.33919
H         -0.46362       -1.62322       -2.31105
H         -1.42020       -0.43818       -3.20704
C          2.61721       -1.37948       -1.20676
H          2.40297       -1.67126       -2.24431
C          2.65784        1.36061       -0.46537
H          2.32704        1.83202        0.46851
C         -3.07134       -1.42149       -0.46810
H         -3.14898       -1.48940        0.62412
C         -2.75337        1.32679       -1.06005
H         -2.58081        1.64507       -2.09519
C          4.00546       -0.71452       -1.11638
H          4.73431       -1.43147       -0.71213
H          4.36936       -0.47017       -2.12534
C          3.97196        0.58110       -0.26021
H          4.83234        1.22123       -0.50002
H          4.08701        0.32228        0.80248
C         -4.31083       -0.71709       -1.04231
H         -4.40235       -0.97236       -2.10736
H         -5.22585       -1.10093       -0.56518
C         -4.20061        0.82284       -0.88033
H         -4.54761        1.10415        0.12340
H         -4.87625        1.33956       -1.57844
C          2.43350       -2.59047       -0.29339
H          3.06538       -3.41153       -0.66038
H          1.40398       -2.95610       -0.39320
C          2.71949        2.40490       -1.57574
H          3.07000        1.92013       -2.49646
H          1.70291        2.75254       -1.80109
C         -2.79414       -2.80006       -1.05317
H         -3.70746       -3.40835       -0.99444
H         -2.58587       -2.69644       -2.12586
C         -2.38625        2.45044       -0.09319
H         -3.18190        3.20837       -0.11282
H         -2.39539        2.05037        0.92931
C          2.74643       -2.33239        1.17131
H          2.56234       -3.21361        1.79025
H          2.13593       -1.52442        1.57098
H          3.78951       -2.04784        1.31673
C          3.59799        3.60078       -1.23465
H          3.25642        4.09059       -0.32077
H          3.59385        4.35036       -2.02939
H          4.63616        3.30746       -1.07284
C         -1.64891       -3.51002       -0.34954
H         -0.74204       -2.90621       -0.37378
H         -1.41831       -4.47560       -0.80522
H         -1.88124       -3.68782        0.70226
C         -1.04807        3.10799       -0.39283
H         -1.02954        3.52530       -1.40135
H         -0.82679        3.92063        0.30282
H         -0.22771        2.39421       -0.32375
Cl        -1.75419       -0.21279        2.39432
Pd        -0.12743       -0.04182        0.85603
