111
-148.55165107
P         -1.83023        2.71270        0.31487
P         -0.37903       -0.08728        0.54806
C         -1.51827        1.99413        1.95110
C         -0.96244        0.73556        2.04409
C         -0.99543        4.34568        0.10602
C         -0.20901        4.36012       -1.18756
C         -1.81274        2.70163        3.09902
H         -2.20450        3.70235        3.02155
C         -1.57742        2.13307        4.33887
H         -1.81152        2.68365        5.23537
C         -1.03771        0.86432        4.42888
H         -0.84998        0.42370        5.39418
C         -0.71812        0.16789        3.27713
H         -0.26277       -0.80826        3.32999
Pd        -1.28746        1.08613       -1.23389
Cl        -2.49889        2.20277       -2.75060
Cl        -0.49818       -0.58646       -2.50979
C         -2.17501        5.33916        0.12827
C         -3.59785        3.20405        0.03539
H          0.28800        5.32034       -1.34588
H          0.55171        3.57549       -1.20177
H         -0.87094        4.18671       -2.03851
H         -1.92114        6.22449       -0.47311
H         -2.33208        5.71040        1.15178
H         -3.95468        2.58377       -0.79821
C         -3.48683        4.68360       -0.38887
C         -4.46723        2.97511        1.25360
H         -0.33374        4.48707        0.97111
H         -4.36547        5.23649       -0.02621
H         -3.52201        4.76008       -1.48556
H         -5.51659        3.19347        1.04219
H         -4.40060        1.94141        1.60046
H         -4.16221        3.62234        2.07634
C         -0.96541       -4.60191        0.44218
C          0.10117       -4.05331        1.19968
C          0.26420       -2.67731        1.20464
C         -0.62692       -1.85922        0.55991
C         -1.72119       -2.37870       -0.08022
C         -1.93843       -3.74552       -0.13259
O         -1.03861       -6.00511        0.23356
C          1.08678       -4.93125        1.98747
H          1.10363       -2.22325        1.70245
H         -2.39687       -1.69540       -0.56567
C         -3.19104       -4.27214       -0.85016
C          3.89970        1.24863       -0.25344
C          3.47197       -0.02272       -0.71521
C          2.16513       -0.40635       -0.46474
C          1.32776        0.38471        0.27558
C          1.76342        1.57332        0.80271
C          3.06042        2.01262        0.59781
O          5.14886        1.77822       -0.67334
C          4.38252       -0.97026       -1.51123
H          1.77195       -1.32294       -0.86865
H          1.06848        2.16119        1.37590
C          3.54015        3.29828        1.29101
C          1.66030       -4.15942        3.19746
C          0.38514       -6.18319        2.54495
C          2.25197       -5.34078        1.07454
C         -4.35491       -3.26178       -0.72978
C         -2.87169       -4.47304       -2.33957
C         -3.67899       -5.59173       -0.22546
C         -0.35218       -6.45664       -0.92731
H          2.30866       -3.34265        2.88353
H          0.85877       -3.74719        3.80992
H          2.25805       -4.81751        3.82774
H         -0.46811       -5.90234        3.16145
H          0.02202       -6.82359        1.74486
H          1.06602       -6.77441        3.15678
H          2.77110       -4.46120        0.69681
H          2.97418       -5.95315        1.61388
H          1.90224       -5.91119        0.21796
H         -4.15835       -2.35057       -1.29270
H         -5.27791       -3.68663       -1.12369
H         -4.52832       -2.99235        0.31172
H         -2.06773       -5.19180       -2.47761
H         -3.74490       -4.83526       -2.88141
H         -2.55654       -3.53431       -2.79478
H         -4.60232       -5.92974       -0.69525
H         -2.94304       -6.38310       -0.34141
H         -3.86720       -5.46485        0.84011
H          0.38586       -7.20743       -0.64534
H         -1.05933       -6.91894       -1.61562
H          0.14598       -5.62263       -1.42338
C          5.07908        2.53503       -1.87527
C          4.02210       -2.44316       -1.21271
C          4.19168       -0.70874       -3.01282
C          5.86096       -0.78812       -1.12232
C          2.77257        3.52342        2.61384
C          5.03488        3.20210        1.64717
C          3.29542        4.50568        0.37446
H          4.03633       -2.63029       -0.13954
H          3.03701       -2.70600       -1.59501
H          4.73731       -3.11959       -1.68014
H          4.81876       -1.37183       -3.60814
H          3.15422       -0.87345       -3.30300
H          4.44675        0.31707       -3.26898
H          5.99499       -0.92556       -0.04988
H          6.49365       -1.50974       -1.63855
H          6.22052        0.20515       -1.37790
H          2.82519        2.63902        3.24827
H          3.19618        4.35977        3.16935
H          1.72354        3.75613        2.43707
H          5.64981        3.12196        0.75390
H          5.36460        4.08351        2.19659
H          5.22665        2.32553        2.26508
H          3.81433        4.39396       -0.57423
H          3.64325        5.42666        0.84168
H          2.23372        4.61881        0.16242
H          5.49345        3.52849       -1.70386
H          5.66958        2.04892       -2.65148
H          4.04449        2.62342       -2.20942
