111
-148.54976136
P         -2.71424        1.93619       -0.48355
P          0.01329        0.54116        0.27277
C         -1.97776        2.23260        1.14739
C         -0.75345        1.67486        1.44419
C         -3.57570        3.45480       -1.10261
C         -2.74061        4.23103       -2.09717
C         -2.62464        3.00805        2.08882
H         -3.59207        3.42548        1.86373
C         -2.03562        3.22946        3.32190
H         -2.54053        3.83459        4.05713
C         -0.80391        2.67490        3.61279
H         -0.34724        2.84506        4.57386
C         -0.16252        1.88974        2.67177
H          0.78874        1.42950        2.88910
Pd        -1.10494        0.84073       -1.74031
Cl        -2.14971        1.48739       -3.60855
Cl         0.61093       -0.27471       -2.67824
C         -4.89469        2.88646       -1.65513
C         -4.12939        0.74046       -0.47869
H         -3.25552        5.13472       -2.43110
H         -1.78205        4.52640       -1.66430
H         -2.52857        3.63117       -2.98189
H         -4.75208        2.63034       -2.71415
H         -5.68209        3.65551       -1.63875
H         -3.91489        0.01350       -1.27353
C         -5.33476        1.61829       -0.86827
C         -4.25870        0.04844        0.86081
H         -3.77786        4.07241       -0.21843
H         -5.86114        1.92164        0.04705
H         -6.06466        1.03190       -1.44659
H         -4.40493        0.77670        1.66070
H         -5.10843       -0.63809        0.87609
H         -3.35890       -0.52280        1.09834
C         -1.17929       -3.72501        1.35246
C         -0.50612       -3.46254        0.13223
C         -0.18574       -2.15062       -0.16789
C         -0.43608       -1.13715        0.71754
C         -0.98743       -1.40057        1.94395
C         -1.34073       -2.68891        2.30758
O         -1.72217       -5.01350        1.60214
C         -0.14825       -4.56492       -0.87617
H          0.25235       -1.89182       -1.11520
H         -1.14854       -0.57751        2.61702
C         -1.91513       -2.93887        3.71091
C          4.54235        0.95885        0.07807
C          3.72462        1.78895       -0.73113
C          2.34909        1.66857       -0.61734
C          1.79046        0.71553        0.19255
C          2.57621       -0.16079        0.89472
C          3.95780       -0.09080        0.83151
O          5.94031        1.19717        0.15782
C          4.30669        2.80789       -1.72351
H          1.69011        2.31368       -1.17275
H          2.08957       -0.91102        1.49384
C          4.79510       -1.13869        1.58151
C          1.12637       -4.18685       -1.66553
C          0.14572       -5.89638       -0.16187
C         -1.30622       -4.73859       -1.87043
C         -1.34956       -1.91603        4.72270
C         -3.44378       -2.79119        3.67043
C         -1.53021       -4.33804        4.22484
C         -3.05641       -5.17915        1.13865
H          1.45720       -5.01821       -2.28748
H          0.95468       -3.34078       -2.32915
H          1.94033       -3.93116       -0.98787
H          0.93895       -5.76948        0.57418
H         -0.73308       -6.27128        0.35669
H          0.46056       -6.66083       -0.87176
H         -1.49925       -3.80720       -2.40236
H         -1.07587       -5.50706       -2.60781
H         -2.22352       -5.02494       -1.36163
H         -0.26036       -1.90113        4.69124
H         -1.71298       -0.90873        4.52420
H         -1.65157       -2.16965        5.73861
H         -3.89021       -3.49608        2.97328
H         -3.87907       -2.96835        4.65358
H         -3.72600       -1.78759        3.35360
H         -1.88139       -4.49132        5.24497
H         -1.96367       -5.12067        3.60718
H         -0.44827       -4.46586        4.21555
H         -3.70361       -5.44286        1.97497
H         -3.41595       -4.25904        0.67610
H         -3.09319       -5.99009        0.41147
C          6.31501        2.10909        1.18239
C          5.65121        2.32004       -2.29336
C          3.35334        3.00031       -2.92544
C          4.48984        4.15999       -1.01845
C          6.11613       -1.42253        0.84365
C          5.08077       -0.63769        3.00506
C          4.03359       -2.48132        1.67314
H          5.53840        1.33958       -2.75483
H          6.03061        3.00886       -3.04769
H          6.40552        2.23723       -1.51483
H          3.81993        3.61383       -3.69574
H          3.09515        2.04045       -3.37219
H          2.43144        3.50087       -2.63351
H          4.89117        4.90631       -1.70358
H          3.53741        4.52824       -0.63791
H          5.17230        4.07571       -0.17606
H          6.67979       -2.21301        1.33853
H          5.92281       -1.73445       -0.18219
H          6.74912       -0.53924        0.80977
H          5.66593       -1.36642        3.56544
H          5.63491        0.29781        2.98946
H          4.15088       -0.46322        3.54589
H          4.67237       -3.26102        2.08737
H          3.70434       -2.80762        0.68704
H          3.16013       -2.40777        2.31938
H          5.43410        2.45699        1.72335
H          6.99761        1.61862        1.87615
H          6.83166        2.96164        0.74191
