111
-148.55588026
P         -1.64895        2.82725        0.02404
P         -0.55979       -0.10751        0.50127
C         -1.65713        2.11898        1.69581
C         -1.25029        0.81531        1.88893
C         -0.48532        4.25847       -0.09421
C          0.66902        3.93129       -1.01796
C         -2.04408        2.88504        2.77662
H         -2.32848        3.91344        2.62453
C         -2.04354        2.33450        4.04672
H         -2.34895        2.93129        4.89064
C         -1.64660        1.02432        4.23516
H         -1.64060        0.59816        5.22486
C         -1.23871        0.26489        3.15321
H         -0.89302       -0.74821        3.28599
Pd        -1.31346        1.02195       -1.37251
Cl        -1.83271        2.36780       -3.08670
Cl        -0.87708       -0.87070       -2.50651
C         -1.38359        5.40950       -0.59094
C         -3.23871        3.65866       -0.43215
H          1.35768        4.77422       -1.11236
H          1.23572        3.06937       -0.66001
H          0.30432        3.68685       -2.01762
H         -1.24626        5.51826       -1.67551
H         -1.05563        6.36593       -0.15658
H         -3.40965        3.41387       -1.48889
C         -2.88764        5.15048       -0.28907
C         -4.40485        3.18922        0.41158
H         -0.13412        4.45119        0.92795
H         -3.12022        5.47401        0.73481
H         -3.53068        5.75882       -0.94346
H         -5.33615        3.67237        0.10742
H         -4.54154        2.10837        0.33074
H         -4.24644        3.42041        1.46534
C         -0.91205       -4.63872        0.69992
C          0.18912       -3.98746        1.31255
C          0.26202       -2.60671        1.22975
C         -0.74024       -1.88021        0.64146
C         -1.86149       -2.49577        0.15135
C         -1.99499       -3.87402        0.19508
O         -0.91002       -6.05136        0.55279
C          1.31900       -4.75177        2.01997
H          1.12016       -2.07663        1.60636
H         -2.62293       -1.88132       -0.29761
C         -3.27727       -4.51676       -0.35571
C          3.75494        1.21140       -0.10714
C          3.19325        0.21850       -0.95027
C          1.87667       -0.15193       -0.73769
C          1.16026        0.35628        0.31223
C          1.72930        1.23989        1.19122
C          3.03838        1.66126        1.03169
O          5.01332        1.78720       -0.42669
C          3.96338       -0.42493       -2.11297
H          1.37063       -0.81365       -1.41904
H          1.12656        1.61572        1.99877
C          3.64479        2.62395        2.06449
C          2.43188       -5.06352        1.00771
C          1.91704       -3.90117        3.16384
C          0.79855       -6.05341        2.65635
C         -3.60478       -5.82850        0.38053
C         -4.48760       -3.57623       -0.15724
C         -3.10345       -4.78057       -1.85929
C         -0.30126       -6.50533       -0.64985
H          2.06100       -5.67653        0.18973
H          2.83001       -4.14443        0.57842
H          3.25402       -5.59773        1.48322
H          1.13451       -3.55388        3.83802
H          2.62797       -4.48454        3.74856
H          2.45311       -3.03274        2.78399
H          1.58676       -6.56023        3.21253
H         -0.02049       -5.84359        3.34346
H          0.43170       -6.74543        1.90265
H         -2.83363       -6.57760        0.21987
H         -3.68489       -5.65656        1.45336
H         -4.54839       -6.24804        0.03258
H         -4.56881       -3.26356        0.88346
H         -4.41267       -2.68546       -0.77904
H         -5.41591       -4.07803       -0.42939
H         -4.00422       -5.22111       -2.28575
H         -2.89631       -3.85213       -2.39105
H         -2.27543       -5.45978       -2.04715
H          0.04966       -5.65861       -1.24125
H          0.53993       -7.15614       -0.41190
H         -1.02239       -7.08016       -1.23068
C          4.93036        2.92056       -1.28214
C          3.71739        0.38787       -3.39318
C          5.47062       -0.50134       -1.81019
C          3.47839       -1.87449       -2.34639
C          3.37800        4.07339        1.63097
C          3.00805        2.40351        3.45573
C          5.15783        2.38658        2.21937
H          2.65419        0.41889       -3.63069
H          4.06058        1.41365       -3.28115
H          4.24041       -0.05203       -4.24184
H          6.00510       -1.01548       -2.60861
H          5.90647        0.48911       -1.70793
H          5.64795       -1.04129       -0.88066
H          4.10470       -2.37842       -3.08211
H          3.51888       -2.44968       -1.42185
H          2.45716       -1.90374       -2.72301
H          2.30754        4.26535        1.56723
H          3.80389        4.77874        2.34404
H          3.81042        4.27991        0.65504
H          3.52397        2.99135        4.21458
H          1.96226        2.70715        3.47356
H          3.06659        1.35516        3.74726
H          5.35817        1.34941        2.48605
H          5.57705        3.02421        2.99730
H          5.68955        2.60212        1.29591
H          3.88950        3.14360       -1.51960
H          5.38420        3.78182       -0.79212
H          5.47862        2.72564       -2.20362
