115
-277.93545965
P         -1.68741       -0.07744       -0.12789
P          1.88162       -0.76005        0.42689
C         -1.49099        1.69159       -0.45404
C         -2.60677        2.49022       -0.33138
H         -3.57827        2.04025       -0.19518
C         -2.46275        3.86045       -0.27195
H         -3.30868        4.48765       -0.04147
C         -1.20611        4.43632       -0.36701
C         -0.11313        3.63262       -0.64862
H          0.85751        4.10022       -0.74564
C         -0.25630        2.26030       -0.68889
H          0.60956        1.63790       -0.83693
C         -3.17489       -0.68699       -0.93871
C         -3.76400       -1.82724       -0.44451
H         -3.33350       -2.32497        0.40934
C         -4.90783       -2.32075       -1.03588
H         -5.39152       -3.20473       -0.65208
C         -5.46302       -1.67874       -2.12638
C         -4.86228       -0.53632       -2.61802
H         -5.31095       -0.04129       -3.46494
C         -3.71715       -0.04188       -2.02642
H         -3.23715        0.83904       -2.42133
C         -1.68370       -0.61196        1.62137
C         -1.06695       -1.83914        1.79581
H         -0.62184       -2.33209        0.94767
C         -0.85903       -2.37687        3.06651
C         -1.50704       -1.76809        4.13494
H         -1.39762       -2.18248        5.12322
C         -2.14366       -0.55467        3.96804
H         -2.53046       -0.03885        4.83047
C         -2.14018        0.10059        2.73708
C          1.40512       -0.27977        2.12780
C          0.74258        0.93085        2.13689
H          0.52783        1.41534        1.20297
C          0.18858        1.45742        3.30105
C          0.51296        0.84203        4.50367
H          0.13141        1.24846        5.42536
C          1.17669       -0.36844        4.50916
H          1.30736       -0.89328        5.44040
C          1.52724       -1.00840        3.32002
C         -2.30306        1.60308        2.75019
H         -3.14652        1.86684        3.39777
H         -2.60888        1.92777        1.75867
C         -1.00486        2.37016        3.20269
H         -0.77223        3.19239        2.51734
H         -1.16214        2.85540        4.17217
C          0.31381       -3.28998        3.32099
H          0.34512       -4.07423        2.55728
H          0.14926       -3.82946        4.26041
C          1.67941       -2.51186        3.37213
H          2.24245       -2.78616        4.27222
H          2.32571       -2.84040        2.56259
C          2.84494       -2.27169        0.51253
C          4.08066       -2.23440        1.12490
C          2.23292       -3.47565        0.23518
C          4.64940       -3.41086        1.57773
C          2.80819       -4.64829        0.67672
C          3.98093       -4.61493        1.41577
C          2.87868        0.54067       -0.32022
C          3.09650        0.54253       -1.67851
C          3.28991        1.60542        0.44925
C          3.66941        1.64023       -2.28366
H          2.77468       -0.29645       -2.27239
C          3.86387        2.70398       -0.15428
H          3.11788        1.60079        1.51327
C          4.03078        2.73835       -1.52715
H          3.78385        1.69031       -3.35522
H          4.12160        3.57771        0.42314
Pd         0.18476       -1.03009       -1.17812
Cl        -1.23122       -1.24653       -2.91373
Cl         1.75442       -2.14555       -2.34871
H          2.28744       -5.58616        0.56976
H          1.26865       -3.49574       -0.24667
H          5.55060       -3.39770        2.17065
H          4.54021       -1.28356        1.34597
C         -2.15961        6.77388       -0.10524
C         -0.96307        5.82053        0.18263
C         -0.70272        5.62761        1.70944
F         -2.41622        6.72100       -1.42083
F         -3.23755        6.37028        0.58119
F         -1.81967        8.02289        0.25007
F          0.13082        6.35765       -0.36278
F         -1.74260        4.97936        2.25112
F          0.39179        4.86444        1.83855
F         -0.52027        6.81854        2.29573
C         -6.71179       -3.70624       -2.94328
C         -6.75633       -2.16392       -2.73060
C         -7.92737       -1.72770       -1.80389
F         -7.79298       -4.08655       -3.64126
F         -5.59524       -3.98843       -3.63117
F         -6.67967       -4.32352       -1.75404
F         -6.94715       -1.59567       -3.92440
F         -7.92200       -0.38702       -1.75549
F         -9.08813       -2.16974       -2.31039
F         -7.72617       -2.22481       -0.57469
C          3.05193        4.87193       -2.24719
C          4.36184        4.02995       -2.22645
C          5.54258        4.76102       -1.52400
F          2.12532        4.15264       -2.89720
F          2.64249        5.07148       -0.98716
F          3.27144        6.03680       -2.87419
F          4.72025        3.79345       -3.49120
F          6.56666        3.89757       -1.45072
F          5.89232        5.83218       -2.25316
F          5.17500        5.13293       -0.28990
C          3.34596       -5.59614        3.57090
C          4.30473       -5.75669        2.34688
C          4.14895       -7.13192        1.63578
F          3.54202       -6.60011        4.43588
F          3.62317       -4.41861        4.14690
F          2.07772       -5.57687        3.13826
F          5.56132       -5.65643        2.78672
F          2.86289       -7.33291        1.31671
F          4.89391       -7.09973        0.52070
F          4.58565       -8.10095        2.45510
