171
-217.84269412
P         -1.60575        0.40212       -0.42120
P          1.55186       -0.38211       -0.39132
C         -0.90700        1.37870       -1.75889
C          0.88824       -1.31522       -1.77274
C         -0.09175        0.78586       -2.71663
C          0.53721        1.60701       -3.67302
C          0.29194        2.96971       -3.66287
C         -0.55155        3.53297       -2.72954
C         -1.14217        2.73234       -1.77213
C          1.13409       -2.66543       -1.82615
C          0.59597       -3.42937       -2.84301
C         -0.20811       -2.83356       -3.79127
C         -0.46843       -1.47353       -3.75403
C          0.11075       -0.68863       -2.73889
Cl         1.58349        0.35078        2.79181
Cl        -1.61492       -0.28061        2.84485
C         -1.32922       -0.85833       -4.80080
C          1.46822        1.04576       -4.69061
H         -0.74243        4.59365       -2.74075
H         -1.79389        3.16809       -1.03290
H          1.75172       -3.12399       -1.07083
H          0.79964       -4.48662       -2.89131
H          0.77270        3.59165       -4.39914
H         -0.64144       -3.42761       -4.57816
C         -3.90168       -3.31120       -1.60701
C         -2.86742       -3.42137       -0.68489
C         -2.14977       -2.27368       -0.37634
C         -2.47340       -1.07126       -0.95397
C         -3.50461       -0.97607       -1.85580
C         -4.24435       -2.10113       -2.20072
H         -4.46157       -4.19007       -1.86145
H         -1.33684       -2.31306        0.32821
H         -3.74467       -0.01342       -2.27571
C         -4.24574        2.83314        2.35829
C         -4.79778        1.74375        1.69577
C         -3.98322        1.03107        0.82451
C         -2.67854        1.40776        0.62294
C         -2.15089        2.48702        1.28806
C         -2.92288        3.21876        2.17999
H         -4.86451        3.38082        3.04374
H         -4.35326        0.16028        0.31349
H         -1.11752        2.74367        1.12838
C          4.23881       -2.95100        2.21352
C          2.87637       -3.22508        2.18365
C          2.07756       -2.45313        1.35107
C          2.62111       -1.43766        0.60380
C          3.96735       -1.17513        0.65279
C          4.80811       -1.93555        1.45499
H          4.87815       -3.52993        2.85302
H          1.01571       -2.62748        1.30700
H          4.35479       -0.35743        0.07215
C          3.92585        3.29832       -1.51779
C          2.93385        3.40731       -0.55066
C          2.19874        2.27008       -0.24571
C          2.45080        1.08416       -0.88811
C          3.43344        0.99092       -1.84295
C          4.19721        2.10427       -2.17526
H          4.52083        4.15923       -1.75762
H          1.43718        2.30283        0.51465
H          3.60720        0.03731       -2.31185
Pd        -0.03889        0.01420        1.27518
C         -3.56092       -5.83572       -0.26651
C         -2.49616       -4.75104       -0.01218
C         -2.37526       -4.54562        1.51141
C         -1.15241       -5.23628       -0.57815
H         -3.63163       -6.07950       -1.32623
H         -3.30998       -6.75479        0.26302
H         -4.54125       -5.50927        0.08035
H         -2.15126       -5.48584        2.01499
H         -1.58184       -3.84297        1.76056
H         -3.30659       -4.15624        1.92189
H         -1.22807       -5.40727       -1.65167
H         -0.37206       -4.49518       -0.41266
H         -0.84110       -6.16888       -0.10797
C         -4.93987       -1.41688       -4.51775
C         -5.43171       -1.96490       -3.16693
C         -6.46452       -0.99644       -2.56281
C         -6.12433       -3.31871       -3.41788
H         -4.22577       -2.10314       -4.97105
H         -5.77003       -1.29142       -5.21271
H         -4.45510       -0.44855       -4.40055
H         -6.82098       -1.36792       -1.60244
H         -6.03438       -0.00812       -2.40473
H         -7.32602       -0.88366       -3.22075
H         -6.51985       -3.73550       -2.49179
H         -6.95929       -3.20297       -4.10889
H         -5.43241       -4.03836       -3.85514
C         -7.18699        2.52066        1.70346
C         -6.24874        1.33113        1.98064
C         -6.36834        0.90442        3.45470
C         -6.68735        0.15208        1.09114
H         -7.08797        2.85585        0.67115
H         -8.22767        2.24262        1.86942
H         -6.96238        3.36551        2.35318
H         -7.38414        0.58636        3.68864
H         -5.69538        0.07444        3.66943
H         -6.11124        1.72406        4.12473
H         -7.72441       -0.11858        1.28903
H         -6.60890        0.41456        0.03691
H         -6.07613       -0.73112        1.27603
C         -2.11053        5.56768        1.91553
C         -2.30295        4.41514        2.91563
C         -0.93987        4.00836        3.51162
C         -3.20269        4.90120        4.06851
H         -1.64022        6.42705        2.39309
H         -1.48337        5.25934        1.08065
H         -3.06917        5.88831        1.50812
H         -1.04907        3.14464        4.16714
H         -0.22377        3.74856        2.73425
H         -0.50963        4.82301        4.09373
H         -2.72276        5.71069        4.61842
H         -4.15380        5.28023        3.69561
H         -3.40354        4.09379        4.77252
C          3.25828       -5.02724        3.94205
C          2.22303       -4.30070        3.06261
C          1.52897       -5.33953        2.16454
C          1.18243       -3.63215        3.98193
H          2.77649       -5.78497        4.55990
H          4.00909       -5.52841        3.33140
H          3.76345       -4.32992        4.61009
H          0.74884       -4.87663        1.56379
H          2.24430       -5.80314        1.48552
H          1.06737       -6.12662        2.76054
H          0.70949       -4.36481        4.63540
H          1.65314       -2.87367        4.60691
H          0.39751       -3.14441        3.40534
C          7.09609       -2.93139        1.17970
C          6.31484       -1.65662        1.54827
C          6.66005       -1.23075        2.98661
C          6.74356       -0.52970        0.58719
H          6.83990       -3.26166        0.17317
H          8.17079       -2.75315        1.21310
H          6.87342       -3.74688        1.86665
H          6.41828       -2.01751        3.70029
H          7.72205       -1.00591        3.08341
H          6.09837       -0.34026        3.26834
H          6.51007       -0.78733       -0.44575
H          6.24367        0.40736        0.83203
H          7.81753       -0.35492        0.64969
C          2.82327        4.47291        1.71519
C          2.64365        4.71171        0.20379
C          1.19697        5.14670       -0.08491
C          3.59147        5.84693       -0.22739
H          2.62583        5.38325        2.28087
H          2.14649        3.70137        2.07927
H          3.84112        4.15170        1.93508
H          0.49070        4.37087        0.20541
H          0.94468        6.05575        0.46070
H          1.06017        5.34122       -1.14810
H          3.37187        6.76260        0.32155
H          4.63115        5.58555       -0.03105
H          3.48370        6.06591       -1.28958
C          5.17045        3.10172       -4.27123
C          5.35864        2.03315       -3.17751
C          5.44258        0.65046       -3.85339
C          6.67982        2.29093       -2.42980
H          5.17519        4.10665       -3.85128
H          5.97135        3.04816       -5.00851
H          4.22465        2.96294       -4.79288
H          5.62848       -0.13447       -3.12057
H          4.52101        0.41500       -4.38454
H          6.25729        0.62272       -4.57685
H          6.68509        3.27718       -1.96692
H          6.82739        1.55233       -1.64255
H          7.53044        2.23514       -3.10885
H         -0.73122       -0.50779       -5.64255
H          2.39800        1.61381       -4.71440
H         -1.88569       -0.00830       -4.40325
H         -2.05086       -1.57863       -5.18651
H          1.02804        1.08624       -5.68789
H          1.72362        0.00779       -4.47385
