111
-148.55538551
P         -2.55688        2.08004        1.08044
P          0.09626        0.43407        0.49956
C         -1.43400        1.66579        2.44227
C         -0.26464        0.98581        2.17789
C         -3.31340        3.75608        1.28825
C         -2.72620        4.74718        0.30714
C         -1.74991        2.01226        3.74031
H         -2.67488        2.52634        3.94446
C         -0.88582        1.68296        4.77056
H         -1.13170        1.95295        5.78461
C          0.28878        1.00659        4.50168
H          0.95998        0.74824        5.30412
C          0.59859        0.65313        3.20057
H          1.50340        0.11098        2.97381
Pd        -1.37576        1.61877       -0.84402
Cl        -3.12223        2.38120       -2.02190
Cl         0.01013        1.11331       -2.54246
C         -4.81751        3.48132        1.10058
C         -4.08014        1.03154        1.04376
H         -2.90087        4.42447       -0.72040
H         -3.17442        5.73684        0.42253
H         -1.64611        4.84545        0.44037
H         -5.08063        3.66732        0.05017
H         -5.41470        4.19703        1.68581
H         -4.21957        0.73498       -0.00453
C         -5.18435        2.01580        1.47159
C         -3.93548       -0.18537        1.93141
H         -3.10659        4.06592        2.32052
H         -5.32687        1.93711        2.55821
H         -6.14835        1.72695        1.02573
H         -3.73110        0.10861        2.96259
H         -4.84501       -0.79053        1.93194
H         -3.10884       -0.81759        1.60052
C         -1.09607       -3.91513       -0.11184
C         -1.08454       -3.37803        1.20156
C         -0.72041       -2.05198        1.36523
C         -0.45268       -1.25645        0.28258
C         -0.56846       -1.74244       -0.99199
C         -0.92754       -3.05719       -1.22855
O         -1.23115       -5.31556       -0.30581
C         -1.41186       -4.22219        2.44299
H         -0.62094       -1.62566        2.34763
H         -0.35481       -1.07087       -1.80520
C         -1.08473       -3.53280       -2.68057
C          4.46938        0.65973       -0.73684
C          3.91897       -0.56799       -0.28241
C          2.58411       -0.58793        0.08392
C          1.83029        0.55673        0.08439
C          2.39003        1.76692       -0.22861
C          3.72031        1.86017       -0.60563
O          5.72539        0.67250       -1.39596
C          4.70779       -1.88358       -0.17213
H          2.10851       -1.51551        0.35526
H          1.76565        2.64397       -0.19821
C          4.29655        3.26213       -0.86563
C         -2.01728       -3.34213        3.56027
C         -2.45276       -5.30842        2.11639
C         -0.12135       -4.86621        2.97197
C          0.27827       -4.00662       -3.20810
C         -2.12092       -4.66604       -2.78662
C         -1.58758       -2.37788       -3.57758
C          0.00654       -6.01574       -0.33624
H         -2.87728       -2.78440        3.19141
H         -2.35219       -3.95586        4.39619
H         -1.29156       -2.63317        3.95581
H         -2.73296       -5.86438        3.01075
H         -3.35426       -4.86216        1.69784
H         -2.06755       -6.02259        1.39289
H          0.32960       -5.51582        2.22564
H          0.61131       -4.10269        3.23274
H         -0.31905       -5.46288        3.86211
H          0.66599       -4.83138       -2.61475
H          0.20186       -4.34181       -4.24209
H          1.00832       -3.19840       -3.16826
H         -1.80057       -5.54980       -2.24081
H         -3.07885       -4.34911       -2.37564
H         -2.27700       -4.95847       -3.82469
H         -0.83688       -1.59742       -3.69132
H         -1.82561       -2.73972       -4.57746
H         -2.48815       -1.92744       -3.16112
H          0.12228       -6.51448       -1.29832
H          0.83801       -5.32671       -0.18188
H          0.01508       -6.77628        0.44440
C          5.61155        0.46816       -2.79460
C          4.43450       -2.53003        1.20431
C          4.24794       -2.84772       -1.27908
C          6.22752       -1.66759       -0.27377
C          5.83454        3.26512       -0.90909
C          3.74270        3.80194       -2.19484
C          3.87681        4.21085        0.27893
H          4.67912       -1.83750        2.00923
H          3.39125       -2.82112        1.31588
H          5.03746       -3.42778        1.33832
H          4.77924       -3.79690       -1.21449
H          3.18119       -3.05476       -1.19750
H          4.42909       -2.42792       -2.26671
H          6.56073       -0.93230        0.45780
H          6.76920       -2.59602       -0.09438
H          6.51025       -1.30777       -1.26006
H          6.20623        2.69661       -1.75824
H          6.22319        4.27943       -0.99671
H          6.24543        2.82010       -0.00356
H          2.65397        3.83988       -2.17629
H          4.11099        4.80864       -2.39043
H          4.03684        3.16930       -3.02987
H          4.18716        3.81012        1.24351
H          2.79882        4.36024        0.30685
H          4.33657        5.19151        0.15872
H          5.15894       -0.50148       -2.99544
H          4.98707        1.24306       -3.23580
H          6.60350        0.50372       -3.24546
