87
-129.17978633
P         -1.65344       -0.35712        0.32942
P          1.59042        0.31435       -0.16102
C         -1.44750        0.95648       -0.90179
C          1.20439       -0.70104       -1.59179
C         -0.64235        0.89753       -2.03720
C         -0.49816        2.05563       -2.82538
C         -1.18500        3.20608       -2.47781
C         -1.98599        3.24415       -1.35789
C         -2.10491        2.11774       -0.56667
C          1.98382       -1.78390       -1.91721
C          1.68836       -2.53293       -3.03930
C          0.60937       -2.18998       -3.82809
C         -0.19055       -1.10304       -3.51476
C          0.12231       -0.33006       -2.37871
Cl         1.62664        1.66958        2.76230
Cl        -1.08779        0.05607        3.51961
H         -2.50471        4.15032       -1.09133
H         -2.70563        2.14268        0.33066
H          2.83040       -2.03668       -1.30110
H          2.29724       -3.38436       -3.29557
H         -1.07231        4.08576       -3.08865
H          0.37520       -2.77397       -4.70192
C         -0.43843       -4.63629       -0.61982
C         -1.24684       -3.95476       -1.51853
C         -1.61305       -2.64631       -1.22295
C         -1.17338       -2.04357       -0.06809
C         -0.40877       -2.74258        0.83729
C         -0.02748       -4.04031        0.55570
H         -0.14387       -5.64723       -0.84477
C         -1.69907       -4.61365       -2.77410
H         -2.23686       -2.09407       -1.90482
H         -0.14663       -2.28201        1.77673
H          0.57628       -4.59045        1.25885
C         -6.09068       -0.46989        1.33725
C         -5.17015       -0.38576        2.36299
C         -3.82081       -0.34454        2.07366
C         -3.39881       -0.39039        0.76713
C         -4.31356       -0.47407       -0.25767
C         -5.67735       -0.50659        0.01257
H         -7.14363       -0.50785        1.55911
H         -5.50273       -0.35260        3.38758
H         -3.08941       -0.27081        2.85973
H         -3.96735       -0.50749       -1.27780
C         -6.66592       -0.62019       -1.09416
C          5.02828       -1.55768        2.17417
C          5.13195       -0.25580        1.72549
C          4.09539        0.31116        1.00834
C          2.96436       -0.42531        0.74547
C          2.85811       -1.71987        1.19656
C          3.89197       -2.31034        1.91134
H          5.83185       -1.99891        2.73879
H          6.01713        0.32059        1.93913
H          4.15801        1.33031        0.66341
H          1.96498       -2.28219        0.98986
C          3.75588       -3.70632        2.40900
C          2.74660        4.44313       -1.66668
C          3.35065        3.31851       -2.19388
C          3.00393        2.06520       -1.72397
C          2.06516        1.95041       -0.72567
C          1.46692        3.06858       -0.19383
C          1.79047        4.33424       -0.66630
H          3.01451        5.42020       -2.03107
H          4.08727        3.41606       -2.97440
H          3.45268        1.17443       -2.13514
H          0.73727        2.96181        0.59071
C          1.14623        5.54234       -0.08375
Pd         0.12802        0.40204        1.67357
C          0.39418        2.08136       -4.01809
C         -1.35569       -0.77317       -4.38091
H          1.09367        1.24487       -4.01350
H         -0.18643        2.03279       -4.94002
H          0.98410        2.99879       -4.04083
H         -1.02819       -0.31911       -5.31690
H         -1.92578       -1.67041       -4.62583
H         -2.03488       -0.07696       -3.88730
H         -2.22885       -5.54219       -2.55674
H         -2.37385       -3.97015       -3.34017
H         -0.84893       -4.85250       -3.41461
H         -6.29594       -0.14156       -2.00212
H         -6.87037       -1.66667       -1.32468
H         -7.61031       -0.14241       -0.82955
H          4.72027       -4.11633        2.71190
H          3.08785       -3.74585        3.27056
H          3.34648       -4.35763        1.63531
H          1.11818        6.36122       -0.80397
H          0.11908        5.33097        0.21747
H          1.69126        5.88461        0.79697
