115
-277.93639547
P         -1.68488        0.81023        0.27179
P          1.95555        0.08794       -0.05277
C         -2.64560        2.32423        0.17471
C         -3.90486        2.33905        0.73733
H         -4.36851        1.41205        1.03765
C         -4.49605        3.55019        1.04328
H         -5.41786        3.58082        1.60127
C         -3.83171        4.73904        0.77605
C         -2.63188        4.70620        0.08452
H         -2.12046        5.63792       -0.10159
C         -2.03031        3.49847       -0.20322
H         -1.04873        3.47645       -0.64828
C         -2.67877       -0.54046       -0.39075
C         -2.99386       -1.62467        0.39678
H         -2.71931       -1.63409        1.43837
C         -3.62102       -2.71868       -0.16076
H         -3.80851       -3.60312        0.42735
C         -3.95431       -2.72314       -1.50342
C         -3.66749       -1.61602       -2.27712
H         -3.90056       -1.64727       -3.33026
C         -3.02777       -0.52965       -1.72055
H         -2.75473        0.31065       -2.33721
C         -1.26176        0.51403        2.02986
C         -0.56967       -0.66937        2.18831
H         -0.30548       -1.23916        1.31778
C         -0.04951       -1.06026        3.41953
C         -0.43381       -0.33547        4.54011
H         -0.08069       -0.63721        5.51198
C         -1.12243        0.85201        4.39657
H         -1.30027        1.46495        5.26405
C         -1.44069        1.35875        3.13575
C          1.86081        0.84179        1.61328
C          1.21166        2.06468        1.61085
H          0.80313        2.44523        0.69014
C          0.92786        2.74397        2.79613
C          1.53215        2.28514        3.95999
H          1.36221        2.81056        4.88488
C          2.20356        1.07927        3.96960
H          2.55741        0.68043        4.90508
C          2.27725        0.28298        2.82693
C         -1.62039        2.85718        3.03258
H         -2.17133        3.21149        3.91214
H         -2.29180        3.09119        2.21046
C         -0.27185        3.65299        2.87901
H         -0.30326        4.29748        1.99451
H         -0.14112        4.34663        3.71720
C          1.16227       -1.95302        3.46160
H          0.98200       -2.82696        2.82764
H          1.26685       -2.36437        4.47162
C          2.47560       -1.20050        3.02740
H          3.26576       -1.35689        3.77007
H          2.87700       -1.62515        2.10985
C          1.74585       -1.70598       -0.18020
C          2.82938       -2.50741        0.10703
C          0.51456       -2.27481       -0.43357
C          2.64280       -3.85825        0.32083
C          0.32972       -3.62802       -0.23904
C          1.37777       -4.41299        0.21920
C          3.47422        0.59660       -0.87063
C          4.05213       -0.17283       -1.85370
C          4.05446        1.78262       -0.48635
C          5.22512        0.24353       -2.45073
H          3.57998       -1.09192       -2.16152
C          5.22670        2.19754       -1.08247
H          3.59549        2.37681        0.28735
C          5.81823        1.43098       -2.06853
H          5.70284       -0.34889       -3.21514
H          5.70531        3.11536       -0.78097
Pd         0.11058        0.90540       -1.24812
Cl        -1.43630        1.90005       -2.55330
Cl         1.54429        0.83281       -2.98066
H         -0.64097       -4.07940       -0.38120
H         -0.32340       -1.65907       -0.71240
H          3.44913       -4.47897        0.68005
H          3.80474       -2.06575        0.24128
C         -5.68451        6.11439        1.83175
C         -4.16202        6.00357        1.52979
C         -3.28680        5.97018        2.82433
F         -6.34083        5.96507        0.67167
F         -6.04832        5.14657        2.68424
F         -5.94118        7.32266        2.35634
F         -3.80280        7.07296        0.81554
F         -3.53474        4.83625        3.49310
F         -2.00202        5.97392        2.44201
F         -3.55461        7.04231        3.58154
C         -3.15162       -4.71610       -2.70178
C         -4.42483       -3.97931       -2.18889
C         -5.28372       -4.85653       -1.23171
F         -3.46772       -5.95910       -3.09445
F         -2.66901       -4.00777       -3.73339
F         -2.24237       -4.73784       -1.71595
F         -5.18002       -3.67016       -3.24638
F         -6.22000       -4.06608       -0.68600
F         -5.86366       -5.84032       -1.93715
F         -4.50366       -5.36565       -0.26765
C          7.14582        3.34625       -3.02385
C          7.14382        1.83035       -2.66542
C          8.26820        1.45863       -1.65638
F          6.06002        3.58685       -3.77385
F          7.09063        4.07458       -1.90013
F          8.25866        3.63406       -3.71624
F          7.36408        1.14723       -3.79206
F          8.23097        0.12832       -1.48747
F          9.45727        1.83104       -2.15284
F          8.03020        2.06908       -0.48621
C          0.81165       -5.30928        2.42595
C          1.11757       -5.70890        0.94851
C         -0.04230       -6.51981        0.30594
F          0.53856       -6.40467        3.14732
F          1.89673       -4.68681        2.90563
F         -0.21906       -4.45286        2.44203
F          2.21312       -6.47208        0.94124
F         -1.20050       -5.87108        0.49678
F          0.21407       -6.63057       -1.00663
F         -0.08960       -7.73661        0.87146
