111
-148.55194928
P         -1.62932        2.69058        0.52902
P         -0.29961       -0.17261        0.54731
C         -1.17602        1.91736        2.10790
C         -0.66155        0.63838        2.11580
C         -0.55043        4.15654        0.20372
C          0.30936        3.92297       -1.02022
C         -1.31159        2.60907        3.29468
H         -1.67477        3.62352        3.28069
C         -0.95709        2.00538        4.48888
H         -1.06685        2.54395        5.41598
C         -0.45682        0.71727        4.49401
H         -0.17569        0.24990        5.42336
C         -0.29840        0.03467        3.30127
H          0.12328       -0.95814        3.28213
Pd        -1.60882        0.95177       -0.99630
Cl        -3.10231        2.04195       -2.25462
Cl        -1.31480       -0.85933       -2.30111
C         -1.55430        5.31844        0.06020
C         -3.28780        3.51441        0.57313
H          0.93497        4.79115       -1.24062
H          0.96413        3.05906       -0.88865
H         -0.31247        3.72938       -1.89672
H         -1.71673        5.51163       -1.00901
H         -1.12471        6.24770        0.46376
H         -3.72936        3.35069       -0.41830
C         -2.91861        4.99965        0.73622
C         -4.19525        2.95233        1.64666
H          0.06673        4.28497        1.10258
H         -2.86646        5.23869        1.80718
H         -3.71771        5.63900        0.33065
H         -5.17610        3.43283        1.62998
H         -4.34238        1.87776        1.51628
H         -3.77421        3.10613        2.64040
C         -0.64885       -4.70604        0.78107
C         -1.79875       -3.89406        0.95427
C         -1.64491       -2.51793        0.90270
C         -0.42828       -1.95440        0.62025
C          0.66237       -2.73668        0.34355
C          0.57687       -4.11872        0.37598
O         -0.71760       -6.09982        1.04596
C         -3.19393       -4.48454        1.21147
H         -2.47844       -1.86102        1.08535
H          1.58978       -2.24865        0.09996
C          1.80674       -4.95434       -0.01287
C          3.61253        1.53242       -1.04459
C          2.85791        0.63933       -1.84757
C          1.67958        0.13033       -1.32979
C          1.28841        0.41095       -0.04787
C          2.06195        1.19729        0.76475
C          3.24991        1.74427        0.31026
O          4.70390        2.24659       -1.60728
C          3.25902        0.26742       -3.28307
H          1.01540       -0.45565       -1.94030
H          1.70913        1.40312        1.75985
C          4.09211        2.59725        1.27137
C         -3.40552       -4.65240        2.72354
C         -4.29225       -3.54741        0.65948
C         -3.36127       -5.83892        0.49862
C          2.65521       -4.21102       -1.06927
C          2.67233       -5.19697        1.23250
C          1.39070       -6.29738       -0.64043
C         -0.41053       -6.45004        2.38950
H         -2.66697       -5.32545        3.15233
H         -3.31618       -3.69367        3.23390
H         -4.39423       -5.05791        2.93680
H         -5.27175       -4.02117        0.72003
H         -4.35142       -2.61858        1.22477
H         -4.10277       -3.30224       -0.38528
H         -4.37232       -6.22567        0.62369
H         -3.16626       -5.73689       -0.56840
H         -2.67363       -6.58267        0.89363
H          2.03933       -3.91619       -1.91845
H          3.12360       -3.31875       -0.65662
H          3.45615       -4.84909       -1.44202
H          2.11849       -5.73453        1.99859
H          3.55808       -5.78128        0.98456
H          3.00112       -4.25151        1.66329
H          0.73681       -6.13399       -1.49642
H          2.26123       -6.85790       -0.98020
H          0.85661       -6.92047        0.07248
H          0.45437       -7.11290        2.40673
H         -0.19545       -5.55617        2.97637
H         -1.25454       -6.98037        2.83026
C          4.34452        3.49275       -2.19188
C          2.61936        1.26521       -4.26064
C          4.78918        0.25980       -3.45105
C          2.76392       -1.15349       -3.63581
C          3.90676        2.12008        2.73012
C          5.59247        2.47936        0.94810
C          3.64145        4.06308        1.17753
H          2.87508        1.02086       -5.29126
H          1.53342        1.25031       -4.16951
H          2.95319        2.28101       -4.06313
H          5.07180       -0.06645       -4.45164
H          5.21174        1.24915       -3.29668
H          5.25028       -0.41567       -2.73121
H          3.14295       -1.46474       -4.60892
H          3.10871       -1.87537       -2.89679
H          1.67741       -1.20399       -3.68548
H          4.09415        1.04997        2.81474
H          4.59893        2.63476        3.39616
H          2.90149        2.32295        3.09674
H          6.19336        3.03366        1.66863
H          5.90924        1.43723        0.97244
H          5.81812        2.87306       -0.03970
H          2.58965        4.16006        1.44494
H          3.76293        4.45037        0.16894
H          4.22002        4.69343        1.85228
H          4.89320        4.29779       -1.70337
H          4.61127        3.49279       -3.24858
H          3.27330        3.66786       -2.08837
