58
-89.86287706
P          1.71976        0.45770        0.78736
C          3.06896        1.48990        0.19849
C          4.10886        0.93268       -0.51036
C          5.12325        1.73821       -0.99529
C          5.08443        3.10051       -0.77422
C          4.03180        3.65843       -0.07626
C          3.01853        2.84963        0.40717
H          2.17811        3.27794        0.92999
H          4.11635       -0.12892       -0.69658
C          2.17834       -1.28082        0.78423
C          1.30450       -2.22140        0.29234
C          1.64067       -3.56105        0.31676
C          2.85621       -3.95298        0.84058
C          3.72848       -3.00863        1.34556
C          3.38472       -1.66843        1.32182
H          4.05103       -0.92169        1.72413
H          0.34942       -1.90990       -0.08813
C          1.27537        0.91184        2.51924
C         -0.21395        0.83540        2.81759
C         -0.85741       -0.48914        2.41366
P         -1.54812       -0.40710        0.70643
C         -1.92615       -2.04917        0.07480
C         -2.09388       -2.21326       -1.28053
C         -2.35919       -3.46659       -1.79882
C         -2.45844       -4.55144       -0.95065
C         -2.29841       -4.38332        0.41070
C         -2.03309       -3.12697        0.92512
H         -1.90482       -2.98623        1.98598
H         -2.02028       -1.35223       -1.92415
C         -3.05726        0.56634        0.77609
C         -3.01894        1.93797        0.66846
C         -4.19372        2.66544        0.72972
C         -5.39924        2.01417        0.90112
C         -5.43340        0.63815        1.01073
C         -4.25670       -0.08675        0.94831
H         -4.26710       -1.16218        1.02830
H         -2.07428        2.43640        0.52259
Pd        -0.05398        0.70483       -0.69146
Cl         1.35728        1.58260       -2.20350
Cl        -1.78575        0.87327       -2.12396
H         -0.13954       -1.30884        2.47394
H         -1.69742       -0.74796        3.06316
H         -0.37703        1.02385        3.89048
H         -0.73649        1.65409        2.30392
H          1.83142        0.22401        3.16003
H          1.66947        1.91022        2.72081
H          5.93794        1.30330       -1.55063
H          3.99419        4.72326        0.08501
H          0.95063       -4.29539       -0.06506
H          4.67483       -3.31441        1.76055
H         -2.48841       -3.59476       -2.86092
H         -2.37839       -5.23005        1.07253
H         -4.16736        3.73896        0.63935
H         -6.37396        0.12889        1.14204
H          5.87216        3.73024       -1.15455
H          3.12222       -4.99727        0.86052
H         -2.66434       -5.53058       -1.35143
H         -6.31512        2.58058        0.94674
