111
-148.55336783
P         -2.69285        1.95946       -0.42910
P          0.05548        0.56055        0.29223
C         -1.92418        2.26004        1.18660
C         -0.70213        1.69106        1.47324
C         -3.52129        3.48235       -1.07842
C         -2.71230        4.13335       -2.17902
C         -2.55405        3.04627        2.13020
H         -3.51846        3.47382        1.91019
C         -1.95125        3.26612        3.35693
H         -2.44265        3.87959        4.09436
C         -0.72328        2.69853        3.63881
H         -0.25604        2.86714        4.59507
C         -0.09828        1.90381        2.69469
H          0.85147        1.43667        2.90400
Pd        -1.08286        0.88782       -1.69685
Cl        -2.49089        1.13680       -3.42445
Cl         0.62637       -0.12213       -2.74751
C         -4.90299        2.95892       -1.51190
C         -4.13375        0.79915       -0.37034
H         -3.20301        5.03361       -2.55612
H         -1.71581        4.41125       -1.82745
H         -2.58334        3.45281       -3.02141
H         -4.85757        2.68404       -2.57475
H         -5.65571        3.75916       -1.44482
H         -3.98218        0.08651       -1.19222
C         -5.33113        1.71882       -0.67538
C         -4.21047        0.07778        0.95778
H         -3.62530        4.16519       -0.22565
H         -5.77166        2.05231        0.27427
H         -6.12591        1.15528       -1.18735
H         -5.07683       -0.58623        1.00279
H         -3.31548       -0.52291        1.13237
H         -4.29342        0.78924        1.78143
C         -1.22636       -3.70733        1.23559
C         -0.58025       -3.41263        0.00791
C         -0.22669       -2.09923       -0.24494
C         -0.42131       -1.11941        0.69100
C         -0.94387       -1.41808        1.92158
C         -1.32534       -2.71044        2.24009
O         -1.80760       -4.98641        1.44344
C         -0.29130       -4.47847       -1.05986
H          0.19164       -1.81037       -1.19322
H         -1.06188       -0.61927        2.63203
C         -1.86561       -3.00438        3.64837
C          4.58893        0.91886        0.09734
C          3.78126        1.81800       -0.64560
C          2.40429        1.71104       -0.53432
C          1.83405        0.71211        0.20951
C          2.60853       -0.22401        0.84354
C          3.99066       -0.17245        0.77720
O          5.99099        1.12844        0.18553
C          4.37680        2.89920       -1.56115
H          1.75316        2.40477       -1.03800
H          2.11248       -1.00617        1.39201
C          4.81266       -1.28551        1.44578
C          0.97549       -4.11003       -1.86613
C         -0.02954       -5.85249       -0.41729
C         -1.48131       -4.56149       -2.02772
C         -1.22831       -2.05259        4.68642
C         -3.38773       -2.79662        3.66442
C         -1.52124       -4.43975        4.08555
C         -3.16031       -5.08261        1.01514
H          1.81617       -3.91756       -1.20026
H          1.25780       -4.92203       -2.53574
H          0.81890       -3.22709       -2.48386
H         -0.90802       -6.21921        0.10761
H          0.23711       -6.59312       -1.17084
H          0.78705       -5.79031        0.30130
H         -1.30030       -5.30155       -2.80673
H         -2.39482       -4.83803       -1.50669
H         -1.65302       -3.59911       -2.50948
H         -0.14089       -2.07922        4.62038
H         -1.55593       -1.02360        4.54530
H         -1.50933       -2.34089        5.69911
H         -3.88276       -3.44957        2.94963
H         -3.79951       -3.00414        4.65173
H         -3.63939       -1.76884        3.40446
H         -1.84634       -4.62654        5.10874
H         -2.00477       -5.17555        3.44786
H         -0.44611       -4.60871        4.03488
H         -3.79186       -5.36098        1.85865
H         -3.49883       -4.12980        0.60598
H         -3.24887       -5.85707        0.25346
C          6.38632        1.95369        1.27386
C          4.59107        4.18914       -0.75548
C          5.70783        2.43088       -2.17719
C          3.42024        3.20280       -2.73714
C          6.12665       -1.53675        0.68406
C          5.11010       -0.89421        2.90096
C          4.02896       -2.61860        1.44256
H          5.00030        4.97905       -1.38481
H          3.64894        4.54369       -0.33806
H          5.27913        4.02784        0.07091
H          6.09669        3.16891       -2.87828
H          6.46482        2.27264       -1.41306
H          5.57249        1.49189       -2.71290
H          3.89410        3.86574       -3.46065
H          3.14094        2.28583       -3.25554
H          2.51016        3.69652       -2.39989
H          5.92509       -1.77195       -0.36048
H          6.77351       -0.66333        0.71016
H          6.67913       -2.36916        1.11916
H          4.18451       -0.74187        3.45570
H          5.68217       -1.67244        3.40549
H          5.68180        0.02939        2.95154
H          3.15937       -2.57836        2.09692
H          4.65608       -3.43709        1.79518
H          3.69034       -2.86605        0.43686
H          7.05812        1.39863        1.92834
H          6.92187        2.82452        0.89617
H          5.51359        2.28039        1.84069
