72
-98.09676628
Fe         0.00821        2.79343        0.03620
P          1.87002       -0.07058       -0.02108
P         -1.85859       -0.04909        0.05365
C          1.42228        1.54204        0.73226
C          0.38530        1.75383        1.72866
C          0.32560        3.17344        2.02701
C          1.32347        3.83571        1.20596
C          2.04109        2.82646        0.44540
C         -1.41137        1.58026       -0.66939
C         -1.99289        2.86893       -0.32528
C         -1.32469        3.89214       -1.11149
C         -0.33990        3.23831       -1.95318
C         -0.39978        1.81261       -1.68489
C          3.19576       -0.88631        1.00590
C          4.48201       -0.72000        0.16770
C          2.87248        0.23385       -1.55889
C          4.30068        0.30127       -0.98447
C         -3.22112       -0.76017       -0.99209
C         -4.40469        0.11984       -0.55493
C         -2.91591        0.25306        1.55665
C         -4.32413        0.48923        0.95637
H         -0.26638        0.98446        2.14150
H         -0.35981        3.65642        2.72739
H          1.53952        4.90672        1.20545
H          2.85387        3.00595       -0.26042
H         -2.78959        3.03602        0.40234
H          0.20874        1.04443       -2.15780
Cl         1.56424       -3.05918       -0.42024
Cl        -1.62250       -3.02450        0.30510
Pd         0.00236       -1.49054       -0.00098
H          2.92377       -1.94537        1.08915
C          3.31122       -0.29044        2.40681
H          2.56188        1.19718       -1.98104
C          2.73585       -0.87555       -2.60202
H          4.78476       -1.69133       -0.24956
H          5.31117       -0.41482        0.82147
H          4.50843        1.31534       -0.61233
H          5.03577        0.12144       -1.78334
H         -1.53774        4.96304       -1.08513
H          0.32075        3.72895       -2.67148
H          4.26623       -0.60055        2.85344
H          3.56179       -0.79137       -3.32191
H         -3.38520       -1.79269       -0.66274
C         -2.92683       -0.72785       -2.49308
H         -2.53614        1.15701        2.04732
C         -2.90212       -0.92117        2.53384
H         -5.36031       -0.37293       -0.79291
H         -4.39046        1.03687       -1.16229
H         -4.64131        1.53078        1.11328
H         -5.05045       -0.11498        1.51775
H         -3.87551       -0.66182       -3.04384
H         -3.17225       -1.83264        1.98481
C          2.16871       -0.69553        3.32223
H          2.25284       -0.24233        4.31255
H          1.20950       -0.39599        2.90495
H          2.13333       -1.77844        3.45616
C          1.41454       -0.87701       -3.34935
H          1.26952        0.05226       -3.90354
H          1.35140       -1.69811       -4.06716
H          0.57716       -0.98416       -2.66232
C         -2.14470       -1.94167       -2.97244
H         -1.22742       -2.07613       -2.40092
H         -2.72492       -2.85782       -2.84681
H         -1.87200       -1.86693       -4.02749
C         -1.58263       -1.11994        3.25963
H         -0.77668       -1.33740        2.56003
H         -1.30121       -0.22921        3.82426
H         -1.62662       -1.95289        3.96507
H          3.37377        0.80226        2.32241
H          2.89082       -1.84045       -2.10263
H         -2.39214        0.20049       -2.73126
H         -3.70616       -0.77984        3.26968
