45
-71.81677229
C          2.26535        1.49687        2.34310
P          1.50330        0.96986        0.77244
P         -1.01305        0.07685       -0.92508
C         -0.34467       -0.56510       -2.49710
Cl         1.43717       -1.70446        2.47104
H          2.80602        0.66547        2.78629
H         -0.81705       -0.06141       -3.33558
Cl        -1.21893       -2.67453        0.63281
C          0.43898        2.22757        0.03457
C         -0.64286        1.83045       -0.72123
C         -1.44928        2.76975       -1.32984
C         -1.16578        4.11619       -1.18257
C         -0.07693        4.51473       -0.43133
C          0.72994        3.56881        0.17652
H         -2.29464        2.44261       -1.91390
H         -1.79376        4.85287       -1.65599
H          0.14670        5.56303       -0.32049
H          1.58874        3.86837        0.75485
Pd         0.14441       -0.90500        0.82128
H         -0.53016       -1.63295       -2.57023
H          1.49532        1.82556        3.03516
H          0.72666       -0.39159       -2.54085
C         -5.46065       -0.66417       -0.32407
C         -4.71132       -0.05446        0.66254
C         -3.36009        0.16716        0.46306
C         -2.77011       -0.22170       -0.71800
C         -3.51251       -0.83092       -1.70398
C         -4.86366       -1.05268       -1.50716
H         -6.51287       -0.83923       -0.16965
H         -5.17580        0.24595        1.58733
H         -2.75981        0.64057        1.22454
H         -3.03555       -1.13391       -2.62181
H         -5.44845       -1.53064       -2.27591
C          4.51384       -0.52799       -2.28247
C          4.31196       -1.22828       -1.10908
C          3.40455       -0.75947       -0.17714
C          2.71411        0.40483       -0.42169
C          2.90337        1.10177       -1.59258
C          3.80979        0.63513       -2.52739
H          5.21937       -0.89258       -3.01112
H          4.85339       -2.14107       -0.92241
H          3.20372       -1.30654        0.73039
H          2.33881        2.00245       -1.77215
H          3.96382        1.17742       -3.44579
H          2.95894        2.31393        2.16646
