111
-148.55241896
P         -1.55513        2.73262        0.88078
P         -0.52314       -0.21481        0.40746
C         -1.31616        1.62243        2.29649
C         -0.94457        0.31184        2.08259
C         -0.29913        4.09090        0.92049
C          0.61889        4.00864       -0.28052
C         -1.47605        2.08980        3.58552
H         -1.72402        3.12564        3.74893
C         -1.29226        1.23395        4.65762
H         -1.42116        1.59799        5.66386
C         -0.93855       -0.08365        4.43987
H         -0.79091       -0.74905        5.27454
C         -0.75378       -0.54296        3.14850
H         -0.44439       -1.55919        2.96483
Pd        -1.64309        1.30867       -0.94045
Cl        -3.07166        2.67259       -1.99308
Cl        -1.39528       -0.13817       -2.64374
C         -1.15379        5.37346        0.97496
C         -3.10938        3.73346        1.00610
H          0.04554        4.06064       -1.20837
H          1.34165        4.82786       -0.28831
H          1.17613        3.07020       -0.29349
H         -1.21235        5.79905       -0.03614
H         -0.65514        6.14019        1.58680
H         -3.48381        3.83242       -0.02085
C         -2.59192        5.09658        1.49825
C         -4.15964        3.08548        1.88278
H          0.26058        3.95885        1.85550
H         -2.59528        5.10465        2.59671
H         -3.28203        5.89931        1.19626
H         -4.41571        2.08757        1.51971
H         -3.80770        2.97929        2.90904
H         -5.07535        3.68029        1.91197
C         -0.63988       -4.74134       -0.07874
C         -1.62554       -3.94594       -0.71785
C         -1.58961       -2.57475       -0.52468
C         -0.58051       -1.98970        0.19363
C          0.43908       -2.74305        0.71530
C          0.45690       -4.12048        0.57136
O         -0.76494       -6.15616       -0.06497
C         -2.72235       -4.54673       -1.61162
H         -2.34453       -1.93750       -0.95104
H          1.22998       -2.23316        1.23868
C          1.64317       -4.91725        1.13660
C          3.66131        1.34372       -0.50176
C          3.18548        1.33511        0.83432
C          1.92480        0.81842        1.07913
C          1.13022        0.38024        0.05302
C          1.54694        0.47656       -1.24773
C          2.78945        0.99587       -1.56498
O          5.01606        1.67523       -0.76984
C          4.02148        1.86121        2.01089
H          1.54236        0.75452        2.08240
H          0.86401        0.16395       -2.01779
C          3.16274        1.18353       -3.04371
C         -2.22101       -5.81404       -2.32795
C         -3.95551       -4.87442       -0.75672
C         -3.13605       -3.54317       -2.71276
C          2.93083       -4.06139        1.12814
C          1.33626       -5.32584        2.58526
C          1.92832       -6.16572        0.28223
C         -1.51678       -6.66143        1.03109
H         -2.97464       -6.20136       -3.01313
H         -1.31970       -5.59909       -2.90104
H         -1.98468       -6.60359       -1.61900
H         -3.71574       -5.59528        0.02124
H         -4.33685       -3.97674       -0.27067
H         -4.75453       -5.29252       -1.36846
H         -3.81094       -4.01045       -3.42941
H         -3.65694       -2.68123       -2.29892
H         -2.26345       -3.18512       -3.25844
H          3.11401       -3.64580        0.13752
H          2.87381       -3.23930        1.84019
H          3.79676       -4.66278        1.40402
H          2.16590       -5.88462        3.01763
H          1.16181       -4.44645        3.20488
H          0.44718       -5.94951        2.63870
H          2.80877       -6.69592        0.64442
H          1.09309       -6.86135        0.30562
H          2.10278       -5.88782       -0.75666
H         -0.89939       -7.34597        1.61253
H         -1.85499       -5.84449        1.66977
H         -2.37950       -7.21392        0.65933
C          5.89119        0.55498       -0.79957
C          4.89732        0.72467        2.55905
C          4.90021        3.04743        1.57451
C          3.10807        2.37173        3.14881
C          1.90113        1.47451       -3.88945
C          4.10981        2.38301       -3.22860
C          3.82152       -0.10045       -3.56923
H          4.28078       -0.10955        2.89333
H          5.57712        0.34935        1.79803
H          5.49393        1.06458        3.40520
H          5.44663        3.46275        2.42090
H          5.63054        2.74578        0.82762
H          4.28858        3.83951        1.14358
H          3.69569        2.85663        3.92799
H          2.38910        3.09846        2.77233
H          2.55953        1.55876        3.62233
H          1.24421        0.60808       -3.94742
H          1.33517        2.30533       -3.46882
H          2.17238        1.73806       -4.91136
H          5.05916        2.22096       -2.72444
H          4.32211        2.55594       -4.28333
H          3.66472        3.28928       -2.81906
H          4.72650       -0.33514       -3.01390
H          4.08785       -0.00030       -4.62111
H          3.14371       -0.94818       -3.47158
H          6.68415        0.69270       -0.06462
H          5.34379       -0.36192       -0.57720
H          6.35061        0.47463       -1.78452
