75
-122.81779150
P          1.89160       -0.54403       -0.02737
C          3.24719       -1.25212       -0.97657
C          4.49944       -1.27999       -0.40575
C          5.55903       -1.83925       -1.09724
C          5.35371       -2.37580       -2.35270
C          4.09265       -2.35947       -2.91465
C          3.03570       -1.79974       -2.22078
H          2.04677       -1.78153       -2.64920
H          3.93128       -2.78045       -3.89343
H          6.17823       -2.81091       -2.89356
H          6.54139       -1.85817       -0.65472
H          4.63995       -0.87324        0.58363
C          1.71991       -1.55964        1.44418
C          1.81642       -1.00140        2.69807
C          1.77205       -1.81265        3.81677
C          1.63266       -3.17864        3.67002
C          1.53300       -3.73405        2.40965
C          1.57954       -2.91993        1.29211
H          1.52102       -3.33905        0.29977
H          1.42041       -4.79960        2.29546
H          1.59459       -3.81194        4.54125
H          1.84332       -1.37835        4.80034
H          1.92305        0.06647        2.79576
C          2.23105        1.16733        0.41388
C          3.38571        1.82892        0.06703
C          3.53909        3.17835        0.35182
C          2.49801        3.84916        0.99209
C          1.32969        3.20182        1.32808
C          1.19093        1.83361        1.04482
O          0.00844        1.14027        1.35227
C         -1.19124        1.81160        1.06209
C         -1.34995        3.17756        1.34530
C         -2.53370        3.80367        1.02361
C         -3.57688        3.10982        0.41204
C         -3.39892        1.76568        0.11641
C         -2.22827        1.12479        0.44816
P         -1.86667       -0.58271        0.00677
C         -1.72770       -1.59203        1.48960
C         -1.53290       -1.01217        2.72206
C         -1.51766       -1.79798        3.85923
C         -1.69243       -3.16347        3.75333
C         -1.87779       -3.74379        2.51421
C         -1.89766       -2.95333        1.37905
H         -2.06050       -3.38959        0.40612
H         -2.01085       -4.80984        2.43072
H         -1.67622       -3.77816        4.63848
H         -1.36174       -1.34534        4.82460
H         -1.38006        0.05202        2.78755
C         -3.20151       -1.28804       -0.97461
C         -4.45998       -1.34349       -0.41960
C         -5.50457       -1.90035       -1.13533
C         -5.27841       -2.40639       -2.39978
C         -4.01146       -2.36180       -2.94663
C         -2.96947       -1.80471       -2.22849
H         -1.97650       -1.76555       -2.64578
H         -3.83385       -2.75863       -3.93267
H         -6.09128       -2.83944       -2.95960
H         -6.49155       -1.94107       -0.70471
H         -4.61709       -0.96056        0.57681
Pd        -0.00603       -0.08793       -1.37045
Cl        -1.58082        0.90905       -2.65165
Cl         1.57457        0.83049       -2.70442
H         -4.17229        1.22674       -0.40154
C         -4.83114        3.80846        0.02478
H         -5.69033        3.14016        0.09567
H         -4.76973        4.17029       -1.00231
H         -5.02229        4.66446        0.67319
H         -2.64558        4.85170        1.23879
S         -0.01292        4.06114        2.10432
H          2.59886        4.89582        1.21912
C          4.79747        3.88627       -0.00501
H          4.16594        1.30102       -0.45213
H          5.19166        3.52684       -0.95649
H          4.63311        4.96036       -0.09968
H          5.56071        3.72799        0.75792
