105
-153.07230802
Cl        -0.00512        1.78881        3.09222
Pd        -0.64587        1.12645        1.03460
P         -1.31958        0.54131       -1.13011
N         -1.08116       -1.05259       -1.82490
C          0.00340       -1.91089       -1.60624
C          0.31015       -2.42549       -0.31920
C          1.36659       -3.34612       -0.17326
C          1.64604       -3.92376        1.19360
C          2.55059       -5.16573        1.18668
C          3.74125       -4.97124        0.24354
C          3.26082       -4.71273       -1.19261
C          2.11236       -3.73929       -1.28755
C          1.77823       -3.24135       -2.54080
C          0.74320       -2.35761       -2.70148
H          0.49692       -1.98590       -3.68064
H          2.34932       -3.56018       -3.39636
H          4.08951       -4.34174       -1.80924
H          4.34018       -4.11892        0.58770
H          2.89428       -5.40466        2.20305
H          2.10161       -3.14175        1.81177
C         -0.60163       -2.17334        0.82005
C         -0.11147       -1.56754        2.00998
C         -0.97272       -1.47019        3.10812
C         -2.27171       -1.90178        3.02796
C         -2.77048       -2.48870        1.87111
C         -4.20443       -2.96569        1.88033
C         -4.69808       -3.57492        0.55563
C         -3.58101       -4.34198       -0.15789
C         -2.39052       -3.41583       -0.44331
C         -1.92484       -2.65337        0.77247
H         -1.55096       -3.99553       -0.84719
H         -3.95116       -4.80329       -1.08447
H         -5.06219       -2.77850       -0.10455
H         -4.84708       -2.12510        2.17167
H         -2.92637       -1.78784        3.87539
H         -0.61520       -0.99764        4.00609
N          1.16125       -0.98208        2.08434
P          1.54652        0.23345        0.86167
C          2.66762       -0.33919       -0.40724
C          2.51277        0.11634       -1.69183
C          3.41861       -0.25796       -2.66687
C          4.48974       -1.08400       -2.35316
C          4.64968       -1.50165       -1.03826
C          3.73921       -1.12793       -0.06582
H          3.85970       -1.44208        0.95874
H          5.49143       -2.12135       -0.78071
C          5.46951       -1.48250       -3.40070
H          3.29652        0.08898       -3.67863
H          1.68365        0.76146       -1.92317
C          2.38339        1.65877        1.56762
C          3.18021        1.52466        2.67887
C          3.82974        2.63203        3.19357
C          3.68494        3.87765        2.59716
C          2.89415        3.98627        1.46121
C          2.24584        2.87816        0.94767
H          1.63358        2.95815        0.06341
H          2.78888        4.94395        0.98071
C          4.39999        5.06595        3.13934
H          4.45514        2.53468        4.06450
H          3.29918        0.55606        3.13631
H          1.36537       -0.52977        2.96593
H         -1.40881       -0.95235       -2.77701
C         -0.49786        1.80257       -2.10848
C         -0.35414        3.07135       -1.59668
C          0.31801        4.03573       -2.32451
C          0.83658        3.74116       -3.57785
C          0.66999        2.45948       -4.08434
C         -0.00163        1.49646       -3.35380
H         -0.11531        0.49820       -3.74174
H          1.07722        2.21760       -5.05123
C          1.59232        4.76932       -4.34532
H          0.44496        5.02594       -1.92114
H         -0.77402        3.30711       -0.63150
C         -3.08887        0.82297       -1.22843
C         -3.59562        1.87976       -1.94736
C         -4.96323        2.07324       -2.01431
C         -5.83162        1.21386       -1.35481
C         -5.30090        0.14787       -0.64163
C         -3.93260       -0.04516       -0.58089
H         -3.51021       -0.84782        0.00065
H         -5.96617       -0.52245       -0.12514
C         -7.30528        1.41029       -1.43921
H         -5.36505        2.89725       -2.57884
H         -2.92121        2.55023       -2.45435
Cl        -2.78634        1.56869        1.55712
H          2.95361       -5.65862       -1.65449
H          1.96902       -6.03717        0.86061
H          4.41505       -5.83892        0.28149
H          0.69035       -4.15977        1.67852
H         -3.24967       -5.17447        0.47542
H         -2.65799       -2.70064       -1.22913
H         -4.31215       -3.70473        2.68338
H         -5.56614       -4.22681        0.72764
H          6.25770       -0.73482       -3.49874
H          5.93869       -2.43721       -3.15870
H          4.98378       -1.59007       -4.37163
H          3.84355        5.98342        2.94273
H          4.53368        4.98588        4.21903
H          5.38624        5.16585        2.68406
H          1.52387        4.58938       -5.41910
H          1.20243        5.76970       -4.15206
H          2.64759        4.75994       -4.06895
H         -7.80097        1.06102       -0.53236
H         -7.55538        2.46439       -1.56705
H         -7.72181        0.86021       -2.28412
