105
-153.06374020
Cl         0.14875        2.25193        2.93302
Pd        -0.49873        1.30939        0.99122
P         -1.09674        0.50009       -1.14260
N         -0.65823       -0.98521       -1.98369
C          0.21677       -2.00767       -1.62361
C          0.32875       -2.48592       -0.29388
C          1.26820       -3.49705       -0.00142
C          1.36716       -4.01173        1.41543
C          2.18253       -5.30461        1.57517
C          3.45585       -5.25992        0.72574
C          3.10625       -5.08963       -0.75982
C          2.06713       -4.02801       -1.01794
C          1.89621       -3.58206       -2.32240
C          0.98793       -2.60105       -2.62217
H          0.88344       -2.25052       -3.63417
H          2.50147       -4.01060       -3.10324
H          4.00822       -4.85056       -1.33785
H          4.08065       -4.41887        1.05190
H          2.42628       -5.48484        2.63170
H          1.80896       -3.22352        2.03588
C         -0.67711       -2.11457        0.73020
C         -0.26374       -1.52414        1.95582
C         -1.20296       -1.39832        2.98381
C         -2.49657       -1.81879        2.81480
C         -2.92144       -2.38950        1.62108
C         -4.34986       -2.87142        1.53319
C         -4.80372       -3.25542        0.11545
C         -3.70805       -4.03560       -0.61527
C         -2.42368       -3.20032       -0.71982
C         -2.01125       -2.53723        0.57231
H         -1.59860       -3.82822       -1.07850
H         -4.05167       -4.35217       -1.61028
H         -5.03950       -2.34817       -0.45392
H         -5.00937       -2.09854        1.94730
H         -3.20393       -1.71118        3.61966
H         -0.89960       -0.94264        3.91005
N          1.02897       -1.01348        2.14793
P          1.59339        0.20793        1.00943
C          2.58910       -0.35379       -0.35961
C          2.39657        0.22458       -1.58919
C          3.21010       -0.13319       -2.64854
C          4.23242       -1.05640       -2.47146
C          4.42036       -1.61476       -1.21347
C          3.60415       -1.25636       -0.15553
H          3.75077       -1.67530        0.82733
H          5.20626       -2.33605       -1.06844
C          5.08011       -1.47588       -3.62108
H          3.05134        0.29974       -3.62127
H          1.60379        0.94240       -1.71371
C          2.57708        1.48630        1.79785
C          3.26043        1.22683        2.96164
C          4.02556        2.22156        3.54315
C          4.10910        3.48006        2.96227
C          3.42848        3.71433        1.77497
C          2.66459        2.71846        1.19360
H          2.13054        2.89789        0.27314
H          3.49859        4.68229        1.30894
C          4.94729        4.54556        3.57831
H          4.56391        2.02544        4.45465
H          3.20208        0.24722        3.40716
H          1.17402       -0.57987        3.05053
H         -0.91762       -0.88790       -2.95735
C         -0.63502        1.90465       -2.17060
C         -0.93347        3.17910       -1.75144
C         -0.56948        4.26645       -2.52221
C          0.09060        4.08536       -3.72957
C          0.38432        2.79240       -4.14038
C          0.01618        1.70756       -3.36611
H          0.25123        0.70668       -3.68672
H          0.90678        2.64060       -5.06949
C          0.51184        5.25628       -4.54754
H         -0.79530        5.26481       -2.18841
H         -1.45564        3.31647       -0.81923
C         -2.89427        0.48903       -1.11171
C         -3.55520        0.73219       -2.29261
C         -4.93857        0.72619       -2.32335
C         -5.66925        0.48823       -1.16746
C         -4.98408        0.23641        0.01248
C         -3.60190        0.22685        0.03563
H         -3.06789        0.03138        0.95150
H         -5.54078        0.04981        0.91470
C         -7.15754        0.45925       -1.19891
H         -5.45905        0.91060       -3.24754
H         -2.98547        0.92815       -3.18765
Cl        -2.38668        2.53816        1.05693
H          2.74150       -6.04091       -1.16531
H          1.57078       -6.16103        1.26491
H          4.06527       -6.16065        0.88591
H          0.35285       -4.15884        1.80742
H         -3.49538       -4.96243       -0.06782
H         -2.55342       -2.42174       -1.48048
H         -4.46266       -3.73511        2.19945
H         -5.73859       -3.83273        0.14661
H          5.21373       -0.65801       -4.33051
H          6.07007       -1.78981       -3.28725
H          4.62362       -2.31180       -4.15297
H          4.54422        5.53629        3.36384
H          4.99054        4.43453        4.66267
H          5.96766        4.50644        3.19458
H         -0.17400        6.09460       -4.41746
H          1.50978        5.59024       -4.26023
H          0.53250        5.00793       -5.60959
H         -7.57709        0.81134       -0.25549
H         -7.54771        1.09753       -1.99284
H         -7.52149       -0.55451       -1.37189
