105
-153.06505790
Cl         3.03080        2.20056       -0.49863
Pd         1.09868        1.16246       -1.00193
P         -1.01207        0.26737       -1.57822
N         -0.91902       -1.46124       -1.89397
C          0.15281       -2.18782       -1.34067
C          0.00362       -2.84102       -0.08985
C          1.06810       -3.58907        0.44415
C          0.88210       -4.24396        1.79321
C          2.02670       -5.17939        2.22008
C          3.39123       -4.60988        1.81676
C          3.45942       -4.41684        0.29475
C          2.27925       -3.65534       -0.24935
C          2.41839       -2.97838       -1.45747
C          1.38417       -2.25427       -1.99323
H          1.50497       -1.72089       -2.91959
H          3.36167       -3.02564       -1.97488
H          4.38578       -3.89980        0.01445
H          3.54135       -3.64204        2.31200
H          1.99119       -5.37052        3.30178
H          0.75557       -3.45773        2.54672
C         -1.18235       -2.48983        0.73323
C         -1.03683       -1.42032        1.65045
C         -2.14486       -1.01133        2.38622
C         -3.35819       -1.63012        2.21742
C         -3.52403       -2.67434        1.31157
C         -4.90278       -3.26719        1.14838
C         -4.94959       -4.55491        0.30717
C         -3.99965       -4.47091       -0.89294
C         -2.55586       -4.24605       -0.42021
C         -2.42887       -3.11109        0.56225
H         -2.17460       -5.15930        0.05184
H         -4.30334       -3.63746       -1.53883
H         -5.97571       -4.76665       -0.02504
H         -5.55064       -2.50876        0.69278
H         -4.21097       -1.29549        2.78356
H         -2.03921       -0.20300        3.08583
N          0.24532       -0.89067        1.86027
P          0.94150        0.62195        1.29907
C          0.44862        2.04421        2.26548
C         -0.17798        1.85809        3.47351
C         -0.59047        2.95496        4.20819
C         -0.36247        4.24274        3.74093
C          0.28800        4.40843        2.52498
C          0.70035        3.31038        1.79328
H          1.23850        3.42997        0.86647
H          0.47135        5.40290        2.15564
C         -0.83696        5.42349        4.51436
H         -1.09479        2.81651        5.14924
H         -0.33016        0.85585        3.83857
C          2.68601        0.32306        1.64867
C          3.36187       -0.60899        0.89962
C          4.69515       -0.86663        1.15878
C          5.35754       -0.19829        2.17884
C          4.65948        0.74473        2.92118
C          3.32640        1.00108        2.65829
H          2.78292        1.73071        3.23590
H          5.16788        1.27998        3.70485
C          6.80052       -0.45604        2.44018
H          5.23227       -1.58516        0.56388
H          2.84580       -1.12841        0.10932
H          0.96995       -1.44880        1.42178
H         -1.85062       -1.76144       -1.63524
C         -1.32636        1.13992       -3.11089
C         -1.59361        2.48787       -3.10228
C         -1.82283        3.14612       -4.29707
C         -1.77929        2.45888       -5.50333
C         -1.51895        1.09485       -5.48711
C         -1.29027        0.43863       -4.29093
H         -1.07573       -0.61775       -4.26673
H         -1.49253        0.55104       -6.41583
C         -2.04452        3.16418       -6.78772
H         -2.03450        4.20169       -4.29942
H         -1.62013        3.01832       -2.16353
C         -2.35684        0.68533       -0.47492
C         -2.14032        1.59284        0.53108
C         -3.17795        1.95935        1.36671
C         -4.44565        1.42249        1.19068
C         -4.65413        0.53210        0.14530
C         -3.61069        0.16269       -0.68510
H         -3.77340       -0.52315       -1.50113
H         -5.63870        0.12612       -0.01201
C         -5.56760        1.82104        2.08421
H         -3.00499        2.66182        2.16388
H         -1.16125        2.01989        0.65307
Cl         1.47661        1.48748       -3.19583
H          3.50564       -5.39344       -0.20156
H          1.89153       -6.15940        1.74556
H          4.20818       -5.25457        2.17055
H         -0.06961       -4.79021        1.78509
H         -4.07407       -5.37236       -1.51740
H         -1.89598       -4.06491       -1.27762
H         -5.32556       -3.45049        2.14440
H         -4.66312       -5.40912        0.93355
H         -1.85991        5.68193        4.23721
H         -0.81861        5.22471        5.58685
H         -0.20754        6.29498        4.32898
H          7.06189       -1.49125        2.21611
H          7.42636        0.19043        1.82354
H          7.05134       -0.27029        3.48545
H         -3.10739        3.13841       -7.03181
H         -1.73629        4.20920       -6.73377
H         -1.49833        2.70111       -7.61068
H         -5.20685        2.05585        3.08669
H         -6.07894        2.70239        1.69484
H         -6.30107        1.01872        2.17660
