59
-75.80580984
Cl         1.70343        0.51997        2.27525
P          1.61281       -0.08416       -0.85477
P         -1.58412       -0.14590       -0.77504
C          0.59267        0.24692       -2.35826
H          0.33035        1.30743       -2.38068
H          1.19677        0.03930       -3.24719
C         -0.64185       -0.60494       -2.29133
H         -0.38015       -1.66456       -2.22655
H         -1.29107       -0.47333       -3.16274
C          2.63067       -1.60416       -1.19110
H          2.48621       -1.78522       -2.26497
C          2.98728        1.14431       -0.63231
H          3.07408        1.30564        0.44887
C         -3.02706       -1.26187       -0.47281
H         -3.24391       -1.19248        0.60045
C         -2.51664        1.42771       -1.08314
H         -2.13748        1.83282       -2.02902
C          4.07760       -1.14117       -0.94886
H          4.37774       -1.39807        0.07416
H          4.77035       -1.69190       -1.60303
C          4.22324        0.38979       -1.15122
H          4.34880        0.60927       -2.22046
H          5.13500        0.76700       -0.66337
C         -4.13582       -0.56886       -1.28203
H         -4.07258       -0.90656       -2.32626
H         -5.12768       -0.88880       -0.92658
C         -3.98969        0.97750       -1.21942
H         -4.55257        1.35302       -0.35427
H         -4.45698        1.44932       -2.09637
C          2.20114       -2.84243       -0.40490
H          2.77567       -3.70782       -0.76362
H          1.15833       -3.07007       -0.65917
C          2.73622        2.47553       -1.33123
H          3.66363        3.06503       -1.32103
H          2.52811        2.28713       -2.39231
C         -2.75669       -2.71082       -0.85468
H         -3.70278       -3.26982       -0.84978
H         -2.40683       -2.74681       -1.89426
C         -2.28732        2.41761        0.05342
H         -2.69186        1.98837        0.98010
H         -1.21066        2.51844        0.23895
C          2.35004       -2.73191        1.10595
H          1.85235       -1.84485        1.49474
H          3.39591       -2.66809        1.40906
H          1.92197       -3.59517        1.62100
C          1.60921        3.27477       -0.69816
H          1.82252        3.49739        0.34906
H          0.67311        2.71842       -0.72037
H          1.43896        4.22464       -1.21006
C         -1.75275       -3.37509        0.07416
H         -1.50725       -4.39195       -0.24024
H         -2.13509       -3.42807        1.09537
H         -0.82419       -2.80587        0.11696
C         -2.89945        3.78502       -0.21181
H         -2.48128        4.23434       -1.11460
H         -3.97891        3.71704       -0.35733
H         -2.72291        4.47921        0.61295
Cl        -1.59626       -0.05594        2.39316
Pd         0.04228       -0.00710        0.86572
