171
-217.84588067
P         -1.60991        0.45353       -0.37326
P          1.60622       -0.39815       -0.31881
C         -0.85786        1.39932       -1.70368
C          0.89115       -1.32832       -1.67949
C         -0.05425        0.77543       -2.65112
C          0.59339        1.56776       -3.61845
C          0.38847        2.93732       -3.62029
C         -0.43148        3.53433       -2.68662
C         -1.04746        2.75974       -1.72352
C          1.08829       -2.68753       -1.69910
C          0.51004       -3.45968       -2.68753
C         -0.28534       -2.86221       -3.64206
C         -0.49972       -1.49402       -3.63841
C          0.11674       -0.70277       -2.65000
Cl         1.57186        0.40540        2.83021
Cl        -1.63876       -0.32308        2.80851
C         -1.36605       -0.88734       -4.68646
C          1.47810        0.95939       -4.64981
H         -0.58898        4.60033       -2.70593
H         -1.68294        3.21976       -0.98460
H          1.69659       -3.14718       -0.93661
H          0.67679       -4.52416       -2.70971
H          0.88042        3.53780       -4.36687
H         -0.75174       -3.46151       -4.40578
C         -3.83548       -3.30140       -1.54689
C         -2.86444       -3.37729       -0.55549
C         -2.16886       -2.21795       -0.24197
C         -2.44221       -1.04190       -0.89436
C         -3.40666       -0.98031       -1.86946
C         -4.12719       -2.11786       -2.21516
H         -4.39899       -4.18044       -1.79675
H         -1.42233       -2.22600        0.53367
H         -3.60208       -0.03258       -2.34178
C         -4.43862        2.95051        2.14514
C         -4.94894        1.88603        1.41011
C         -4.06389        1.14878        0.63626
C         -2.73161        1.47283        0.59414
C         -2.24370        2.52579        1.32655
C         -3.08777        3.28107        2.12950
H         -5.10785        3.53188        2.74932
H         -4.41569        0.30341        0.07095
H         -1.19157        2.74988        1.28130
C          4.29589       -3.05955        2.17759
C          2.91953       -3.21730        2.28256
C          2.11221       -2.40883        1.49272
C          2.66860       -1.46550        0.66450
C          4.03019       -1.31063        0.58791
C          4.87594       -2.11322        1.34226
H          4.93576       -3.68859        2.76867
H          1.04029       -2.49558        1.53261
H          4.42747       -0.55043       -0.06040
C          3.93424        3.30882       -1.45639
C          2.96587        3.39663       -0.46355
C          2.25016        2.24846       -0.15575
C          2.49558        1.07244       -0.81898
C          3.45501        1.00009       -1.79865
C          4.20028        2.12482       -2.13459
H          4.51441        4.17850       -1.70086
H          1.50869        2.26629        0.62447
H          3.62310        0.05552       -2.28722
Pd        -0.02622        0.08430        1.28828
C         -2.72473       -4.40769        1.72642
C         -2.55735       -4.66795        0.21666
C         -1.11111       -5.10055       -0.08005
C         -3.50415       -5.81455       -0.18607
H         -2.52576       -5.31086        2.30294
H         -2.04354       -3.63348        2.07638
H         -3.74021       -4.08115        1.94942
H         -0.84225       -5.98971        0.48993
H         -0.99088       -5.32959       -1.13822
H         -0.40455       -4.31130        0.17199
H         -3.28225       -6.71670        0.38394
H         -4.54381       -5.54949        0.00550
H         -3.39801       -6.05909       -1.24279
C         -6.59673       -2.37183       -2.52242
C         -5.26699       -2.08311       -3.24315
C         -5.02254       -3.15078       -4.32630
C         -5.37300       -0.70698       -3.92940
H         -6.58652       -3.35633       -2.05589
H         -6.77917       -1.63433       -1.74094
H         -7.43398       -2.34011       -3.21940
H         -5.01242       -4.15389       -3.90210
H         -5.80413       -3.12083       -5.08530
H         -4.06620       -2.98850       -4.82181
H         -4.44537       -0.44895       -4.43903
H         -6.16996       -0.70625       -4.67291
H         -5.59911        0.07662       -3.20657
C         -6.99889        1.55016        0.00529
C         -6.43001        1.48293        1.43516
C         -7.26083        2.41498        2.33741
C         -6.55094        0.04412        1.97198
H         -6.90024        2.55642       -0.40138
H         -6.47462        0.86734       -0.66221
H         -8.05521        1.28221       -0.00763
H         -7.21196        3.44584        1.98708
H         -8.30923        2.11686        2.33982
H         -6.90674        2.38172        3.36757
H         -7.59402       -0.26746        2.02310
H         -6.02293       -0.66296        1.33301
H         -6.12584       -0.02953        2.97272
C         -3.50892        4.95351        4.00000
C         -2.51276        4.45508        2.93497
C         -2.19436        5.60991        1.97041
C         -1.22326        4.01115        3.65652
H         -3.06306        5.74053        4.60813
H         -4.40630        5.36705        3.54072
H         -3.80311        4.14331        4.66700
H         -1.48904        5.29360        1.20341
H         -3.09856        5.95312        1.46802
H         -1.75923        6.45609        2.50182
H         -0.84102        4.80657        4.29591
H         -1.41263        3.13771        4.28009
H         -0.43502        3.75390        2.95079
C          0.79908       -4.14446        3.33988
C          2.33437       -4.25155        3.25453
C          2.90812       -4.01327        4.66433
C          2.70538       -5.66384        2.77042
H          0.40016       -4.85281        4.06572
H          0.49248       -3.14490        3.64805
H          0.33816       -4.36721        2.37934
H          3.98880       -4.14682        4.68405
H          2.68884       -2.99998        5.00043
H          2.47574       -4.70855        5.38364
H          2.29796       -6.42462        3.43602
H          2.31118       -5.84332        1.77018
H          3.78635       -5.79492        2.73225
C          7.02787       -3.29883        0.83650
C          6.40303       -1.96609        1.28776
C          6.92558       -1.59254        2.68693
C          6.83224       -0.86556        0.29669
H          6.64918       -3.58864       -0.14352
H          8.11264       -3.21789        0.76894
H          6.79685       -4.10184        1.53542
H          6.47346       -0.66200        3.02967
H          6.69112       -2.36653        3.41677
H          8.00725       -1.45957        2.67718
H          7.91788       -0.77467        0.26507
H          6.49094       -1.09253       -0.71313
H          6.42909        0.10405        0.58864
C          3.61961        5.83177       -0.10768
C          2.67533        4.68928        0.31147
C          2.85965        4.43118        1.81945
C          1.22587        5.12447        0.03661
H          3.40533        6.73766        0.45929
H          4.66078        5.56617        0.07463
H          3.50261        6.06993       -1.16473
H          2.68113        5.33898        2.39541
H          2.17019        3.66914        2.18043
H          3.87303        4.09042        2.03022
H          0.97580        6.02751        0.59312
H          1.08178        5.32989       -1.02347
H          0.52258        4.34468        0.32473
C          5.10946        3.15744       -4.24082
C          5.33656        2.07702       -3.16644
C          5.41674        0.70405       -3.86236
C          6.67375        2.33713       -2.44865
H          4.14880        3.01848       -4.73469
H          5.12057        4.15725       -3.80891
H          5.88800        3.11801       -5.00252
H          5.62736       -0.08866       -3.14485
H          4.48507        0.46685       -4.37444
H          6.21400        0.69343       -4.60545
H          7.50744        2.29866       -3.14956
H          6.68166        3.31695       -1.97238
H          6.84769        1.58895       -1.67573
H         -1.71862        0.10134       -4.38956
H          0.95369        0.85485       -5.60050
H         -2.24337       -1.50763       -4.87132
H         -0.82561       -0.78585       -5.62846
H          1.82621       -0.02830       -4.34451
H          2.35734        1.58019       -4.82191
