111
-148.54977512
P         -2.63634        1.96124       -0.45872
P          0.01720        0.45747        0.35928
C         -1.95592        2.18480        1.20680
C         -0.76910        1.56910        1.53804
C         -3.38082        3.53790       -1.08275
C         -2.48253        4.23901       -2.07817
C         -2.61193        2.95988        2.14202
H         -3.55082        3.42328        1.88734
C         -2.06850        3.12283        3.40479
H         -2.58011        3.72781        4.13549
C         -0.87338        2.51053        3.73066
H         -0.45179        2.63602        4.71437
C         -0.22295        1.72673        2.79458
H          0.70156        1.22580        3.03646
Pd        -1.05215        0.78740       -1.67044
Cl        -2.08266        1.41664       -3.55563
Cl         0.70986       -0.22501       -2.63732
C         -4.73727        3.07151       -1.64129
C         -4.11912        0.85352       -0.51810
H         -2.31081        3.61523       -2.95541
H         -2.92508        5.17587       -2.42434
H         -1.50698        4.46487       -1.64117
H         -4.61523        2.82851       -2.70591
H         -5.47034        3.89185       -1.60635
H         -3.93978        0.15045       -1.34260
C         -5.26284        1.81985       -0.88067
C         -4.30318        0.11202        0.78849
H         -3.53625        4.17266       -0.20117
H         -5.76362        2.13769        0.04410
H         -6.03321        1.29822       -1.46860
H         -4.42150        0.81163        1.61796
H         -5.18840       -0.52779        0.76415
H         -3.43785       -0.51630        1.01123
C         -1.24588       -3.83377        1.22890
C         -0.52618       -3.53270        0.04448
C         -0.16989       -2.21571       -0.18634
C         -0.43122       -1.23698        0.73483
C         -1.03308       -1.54100        1.92758
C         -1.42104       -2.83695        2.22280
O         -1.82518       -5.11900        1.40190
C         -0.16863       -4.59501       -1.00625
H          0.29532       -1.92239       -1.11083
H         -1.21230       -0.74250        2.62534
C         -2.05415       -3.13359        3.59136
C          4.51494        1.10358        0.10410
C          3.62614        2.07072       -0.43133
C          2.26390        1.85312       -0.30263
C          1.78477        0.69748        0.25578
C          2.63811       -0.29042        0.67258
C          4.01102       -0.13558        0.57557
O          5.90251        1.39118        0.20015
C          4.11801        3.34491       -1.13534
H          1.55216        2.58665       -0.64182
H          2.21288       -1.19233        1.07707
C          4.92601       -1.29788        0.99225
C          1.14222       -4.22004       -1.73444
C          0.06114       -5.96963       -0.35258
C         -1.29789       -4.68113       -2.04413
C         -1.50380       -2.16998        4.66763
C         -3.57628       -2.94578        3.50071
C         -1.72201       -4.56282        4.05717
C         -3.14704       -5.23152        0.88923
H          1.46316       -5.02641       -2.39338
H          1.02267       -3.33147       -2.35229
H          1.94181       -4.03531       -1.01826
H          0.83233       -5.90527        0.41436
H         -0.84527       -6.34293        0.11714
H          0.37714       -6.70654       -1.09054
H         -1.44306       -3.71909       -2.53518
H         -1.06797       -5.42024       -2.81105
H         -2.24040       -4.96058       -1.57939
H         -0.41418       -2.18110        4.67720
H         -1.83553       -1.14620        4.50055
H         -1.85014       -2.45968        5.65946
H         -3.82225       -1.92383        3.21356
H         -4.01299       -3.61166        2.76042
H         -4.05235       -3.14977        4.45945
H         -2.11578       -4.75115        5.05565
H         -2.14922       -5.30713        3.38985
H         -0.64379       -4.71701        4.08297
H         -3.17718       -6.00250        0.11953
H         -3.82594       -5.52406        1.69011
H         -3.47297       -4.28108        0.46466
C          6.28069        2.01230        1.42206
C          5.45263        3.09564       -1.86130
C          3.10123        3.79999       -2.20730
C          4.27999        4.46896       -0.10130
C          6.23545       -1.29339        0.18235
C          5.23200       -1.19076        2.49355
C          4.23714       -2.65465        0.72070
H          5.35816        2.26750       -2.56291
H          5.76732        3.97814       -2.41770
H          6.24569        2.84924       -1.15958
H          2.86262        2.98175       -2.88637
H          2.17430        4.15512       -1.75952
H          3.50462        4.62058       -2.80010
H          4.61481        5.39090       -0.57605
H          3.33347        4.67124        0.39947
H          5.00723        4.20058        0.66132
H          6.85160       -2.15792        0.42817
H          6.02503       -1.31915       -0.88632
H          6.82435       -0.40227        0.38448
H          5.87337       -2.00870        2.82076
H          5.73470       -0.25496        2.72687
H          4.31278       -1.22788        3.07772
H          3.37707       -2.81028        1.37020
H          4.92526       -3.48084        0.89810
H          3.90215       -2.71459       -0.31428
H          6.75761        2.96964        1.21238
H          5.40643        2.17182        2.05444
H          6.99807        1.38172        1.94691
