72
-108.39386063
Cl        -1.93261        0.28426        2.77553
Cl         1.10327       -0.37422        2.73985
P          1.15093       -1.10372       -0.30028
P         -2.28090        0.05936       -0.34398
C         -3.26828       -1.55568       -0.23665
C         -3.63762       -1.83205        1.22090
C         -4.52612       -1.44312       -1.09100
C         -3.34558        1.58751        0.05090
C         -4.11747        2.02887       -1.19901
C         -1.48487        0.46748       -2.01158
C         -1.54506       -0.63203       -3.05239
C          1.10929        0.26104       -1.50188
C         -0.06970        1.01673       -1.93130
C          0.41467        2.11539       -2.77102
C          1.85825        2.01739       -2.87379
C          2.28421        0.86561       -2.10179
C         -2.39978       -2.71051       -0.71914
H         -2.74863       -1.87335        1.85043
H         -4.30350       -1.07692        1.62947
H         -5.20982       -0.69168       -0.69966
H         -5.06411       -2.39239       -1.10874
C         -4.34151        1.35231        1.18286
H         -3.47308        2.52423       -1.92470
H         -4.89269        2.75004       -0.93452
H         -2.10592        1.29099       -2.37553
H         -0.87765       -1.44720       -2.78257
H         -1.20659       -0.26748       -4.02448
H         -2.55093       -1.02725       -3.18654
H         -0.21770        2.81668       -3.31923
H          2.50745        2.67319       -3.45866
Pd        -0.50251       -0.31615        1.15443
H          3.31013        0.52470       -1.94684
C         -2.35676        2.66949        0.45692
H         -4.60380        1.18699       -1.68993
H         -3.85012        0.98215        2.07970
H         -4.83722        2.28600        1.45224
H         -5.12260        0.65236        0.89258
H         -1.86898        2.40915        1.39629
H         -1.59080        2.80010       -0.30895
H         -2.86035        3.62787        0.59908
H         -4.14858       -2.79193        1.31196
H         -4.29040       -1.17792       -2.12036
H         -1.46617       -2.74469       -0.15990
H         -2.90720       -3.66499       -0.56895
H         -2.16814       -2.63918       -1.77832
C          2.82820       -1.17964        0.37578
C          3.23785       -2.04947        1.35551
C          4.58372       -1.78090        1.60527
C          4.94223       -0.75762        0.76298
O          3.87389       -0.37876        0.00253
H          2.62229       -2.77777        1.85770
H          5.21655       -2.27655        2.32324
H          5.92349       -0.30361        0.70056
C          0.76975       -2.70458       -1.03285
C          0.82471       -3.88757       -0.33784
C          0.46705       -4.90155       -1.22756
C          0.20747       -4.29328       -2.43105
O          0.38427       -2.94313       -2.32369
H          1.08413       -4.00344        0.70191
H          0.40716       -5.95586       -1.01212
H         -0.09716       -4.79561       -3.34078
Fe         1.29252        2.17058       -0.93208
C          2.27740        2.05753        0.85272
C          0.95464        2.61846        1.03190
C          0.86121        3.82917        0.23690
C          2.12855        4.00560       -0.44776
C          3.00696        2.91680       -0.05889
H          2.65752        1.15244        1.32936
H          0.20579        2.23788        1.72798
H          0.01013        4.51219        0.19582
H          2.38907        4.83335       -1.11087
H          4.03920        2.77175       -0.38521
