72
-108.40187515
Cl        -1.72429        0.83543        2.70767
Cl         0.94463       -0.93373        2.68332
P          1.15014       -1.12028       -0.24841
P         -2.27163        0.12915       -0.42547
C         -3.29227       -1.45625       -0.21776
C         -3.67640       -1.61881        1.25458
C         -4.54065       -1.38407       -1.08914
C         -3.31606        1.69611       -0.16730
C         -4.12124        2.01489       -1.43257
C         -1.42347        0.41671       -2.08386
C         -1.45445       -0.75656       -3.04056
C          1.15232        0.22652       -1.47568
C         -0.01159        0.96438       -1.96936
C          0.50598        2.07148       -2.77527
C          1.95307        1.97972       -2.81267
C          2.35162        0.82104       -2.03702
C         -2.44412       -2.65766       -0.61353
H         -2.79676       -1.60780        1.89825
H         -4.35074       -0.83802        1.59545
H         -5.22508       -0.61124       -0.74274
H         -5.08306       -2.33057       -1.06160
C         -4.27270        1.56113        1.01271
H         -4.64879        1.14042       -1.80880
H         -3.49105        2.40107       -2.23283
H         -2.02389        1.21617       -2.52843
H         -0.81912       -1.56092       -2.67688
H         -1.06274       -0.47253       -4.01947
H         -2.46206       -1.14279       -3.19181
H         -0.10356        2.77373       -3.34729
H          2.62388        2.64013       -3.36699
Pd        -0.56752       -0.26899        1.14138
H          3.37129        0.48686       -1.83485
C         -2.32628        2.81958        0.10264
H         -4.86577        2.78553       -1.22591
H         -3.75395        1.23029        1.91036
H         -4.73436        2.52291        1.24112
H         -5.08184        0.86640        0.79415
H         -1.56870        2.87101       -0.68065
H         -2.83343        3.78557        0.14495
H         -1.82859        2.66849        1.05917
H         -4.18641       -2.57030        1.41383
H         -4.29039       -1.17625       -2.12876
H         -1.51484       -2.66878       -0.04728
H         -2.96980       -3.58982       -0.39949
H         -2.20729       -2.66479       -1.67423
C          2.83869       -1.23214        0.40764
C          3.31408       -2.26820        1.17268
C          4.64239       -1.97539        1.48119
C          4.92562       -0.77028        0.88773
O          3.82777       -0.30375        0.22453
H          2.75746       -3.13577        1.48585
H          5.31375       -2.57651        2.07242
H          5.87505       -0.25103        0.93107
C          0.74359       -2.73069       -0.94970
C          0.60809       -3.86451       -0.18709
C          0.29831       -4.90885       -1.05949
C          0.25838       -4.36683       -2.32082
O          0.52618       -3.02848       -2.26724
H          0.70198       -3.92213        0.88555
H          0.12356       -5.93881       -0.79458
H          0.04463       -4.90713       -3.23469
Fe         1.30250        2.14276       -0.88522
C          0.89232        3.80505        0.26659
C          2.20340        3.90398       -0.34919
C          3.01101        2.79024        0.11555
C          2.17833        1.97355        0.97543
C          0.88058        2.60403        1.07967
H          0.07740        4.52476        0.16264
H          2.54291        4.70983       -1.00402
H          4.05081        2.58713       -0.14902
H          2.47958        1.05378        1.47994
H          0.06932        2.25414        1.72041
