105
-153.06055416
Cl         0.53946        3.68308        1.52929
Pd        -0.10502        1.96131        0.22808
P         -0.73478        0.25685       -1.30228
N          0.14844       -1.13550       -1.95449
C          0.23766       -2.46834       -1.56458
C         -0.10456       -2.96303       -0.27593
C          0.20686       -4.30122        0.05279
C          0.05973       -4.77153        1.48191
C         -0.09414       -6.29355        1.60864
C          1.02853       -7.00609        0.84877
C          1.01716       -6.62224       -0.64058
C          0.72874       -5.16432       -0.91408
C          0.98658       -4.67524       -2.18730
C          0.76755       -3.35875       -2.49800
H          1.01312       -2.99207       -3.47972
H          1.38657       -5.34353       -2.93119
H          1.97771       -6.88237       -1.10341
H          1.99482       -6.72975        1.28931
H         -0.11448       -6.60220        2.66346
H          0.94511       -4.44456        2.04035
C         -0.70164       -2.10293        0.78113
C          0.11353       -1.11801        1.39769
C         -0.35932       -0.44659        2.52557
C         -1.61098       -0.71315        3.01664
C         -2.44551       -1.64554        2.40682
C         -3.80413       -1.88819        3.02265
C         -4.73141       -2.81833        2.21899
C         -3.94584       -3.94060        1.53296
C         -2.88297       -3.34973        0.59709
C         -1.99318       -2.34362        1.28335
H         -2.27864       -4.14757        0.15021
H         -4.61915       -4.61696        0.98751
H         -5.26242       -2.23572        1.45681
H         -4.29133       -0.91770        3.18136
H         -1.96823       -0.18592        3.88496
H          0.25996        0.30048        2.98712
N          1.28094       -0.74424        0.73790
P          1.82186        0.87289        0.99421
C          2.93090        1.37295       -0.31678
C          3.14564        2.71298       -0.53462
C          3.91569        3.11813       -1.60917
C          4.47043        2.18177       -2.47187
C          4.22789        0.83364       -2.24245
C          3.45846        0.43010       -1.16625
H          3.25479       -0.61450       -0.99468
H          4.63741        0.10211       -2.91795
C          5.26509        2.61672       -3.65354
H          4.07632        4.16655       -1.79347
H          2.66923        3.43230        0.11290
C          2.60270        0.95456        2.60447
C          2.47725        2.06072        3.40926
C          3.08796        2.08434        4.64832
C          3.82412        0.99409        5.09273
C          3.94572       -0.11273        4.26282
C          3.33236       -0.13265        3.02235
H          3.40930       -0.99429        2.37755
H          4.52264       -0.95931        4.59373
C          4.50390        1.02735        6.41734
H          2.99621        2.95182        5.27937
H          1.89522        2.89775        3.06336
H          1.14141       -0.83653       -0.26742
H          0.36908       -0.92403       -2.91974
C         -0.61299        1.45108       -2.64313
C          0.64647        1.86579       -3.00482
C          0.80104        2.79395       -4.01805
C         -0.30736        3.31552       -4.67101
C         -1.57057        2.87594       -4.29732
C         -1.72255        1.94821       -3.28356
H         -2.70289        1.61818       -2.98202
H         -2.43589        3.26894       -4.80317
C         -0.14298        4.30088       -5.77527
H          1.78593        3.12289       -4.30200
H          1.50467        1.47577       -2.48194
C         -2.45991       -0.20741       -1.16912
C         -2.97642       -1.01647       -2.15302
C         -4.31477       -1.36762       -2.12441
C         -5.14213       -0.91003       -1.10839
C         -4.60093       -0.09422       -0.12347
C         -3.26370        0.25426       -0.15463
H         -2.84417        0.88813        0.60928
H         -5.23285        0.26984        0.66839
C         -6.57822       -1.30257       -1.07777
H         -4.72430       -2.00349       -2.89057
H         -2.32736       -1.37220       -2.93782
Cl        -2.03963        3.01260       -0.22329
H          0.26802       -7.22475       -1.16821
H         -1.06373       -6.59567        1.19311
H          0.95055       -8.09552        0.97247
H         -0.78313       -4.26686        1.96583
H         -3.45592       -4.56030        2.29437
H         -3.37378       -2.85721       -0.24851
H         -3.65284       -2.30375        4.02618
H         -5.51747       -3.23542        2.86410
H          6.04202        1.88971       -3.89409
H          4.62554        2.72861       -4.53018
H          5.75388        3.57436       -3.46914
H          5.51033        1.43800        6.32580
H          3.95189        1.64432        7.12777
H          4.58605        0.02635        6.84314
H         -0.07107        3.79469       -6.73888
H         -0.98891        4.98835       -5.81788
H          0.76050        4.89706       -5.63967
H         -7.10084       -0.83785       -0.24061
H         -7.08339       -0.99863       -1.99562
H         -6.68272       -2.38395       -0.97768
