111
-148.54740333
P         -2.59090        2.11533        0.66266
P          0.10444        0.45575        0.46609
C         -1.55314        1.87815        2.13930
C         -0.35975        1.19745        2.03621
C         -3.63018        3.64090        0.88149
C         -3.56433        4.56765       -0.31106
C         -1.95981        2.35553        3.37014
H         -2.90726        2.85955        3.46236
C         -1.16170        2.16545        4.48509
H         -1.48069        2.54029        5.44397
C          0.03958        1.49301        4.37252
H          0.65979        1.34268        5.24080
C          0.43888        1.00105        3.14326
H          1.36364        0.45490        3.03947
Pd        -1.20695        1.50689       -1.11522
Cl        -2.44793        2.82186       -2.43293
Cl         0.07905        0.71066       -2.77549
C         -5.03831        3.06351        1.13363
C         -3.92404        0.83249        0.54371
H         -4.13978        5.48106       -0.14379
H         -2.53436        4.85140       -0.53817
H         -3.97507        4.08034       -1.19634
H         -5.79656        3.76897        0.76349
H         -5.22014        2.97475        2.21471
H         -3.75437        0.28098       -0.39145
C         -5.21534        1.67133        0.46699
C         -3.87504       -0.10871        1.72781
H         -3.24735        4.15725        1.77156
H         -6.04156        1.11830        0.93705
H         -5.50980        1.80729       -0.58405
H         -2.91184       -0.61889        1.78834
H         -4.01501        0.43945        2.66139
H         -4.65628       -0.87024        1.66890
C         -1.25070       -3.89104        0.27648
C         -1.07539       -3.26862        1.53923
C         -0.64962       -1.95116        1.56892
C         -0.47632       -1.23923        0.41136
C         -0.74521       -1.80654       -0.80559
C         -1.17426       -3.11710       -0.90908
O         -1.45903       -5.29376        0.19918
C         -1.30682       -4.01126        2.86425
H         -0.43850       -1.46203        2.50326
H         -0.58956       -1.20806       -1.68586
C         -1.51520       -3.67637       -2.29856
C          4.54966        0.62289       -0.51219
C          3.80151       -0.55095       -0.78175
C          2.45166       -0.54888       -0.47692
C          1.86064        0.52676        0.13212
C          2.59828        1.62716        0.48195
C          3.95613        1.68949        0.21162
O          5.87919        0.74443       -0.99678
C          4.41273       -1.80373       -1.42856
H          1.83401       -1.39347       -0.72677
H          2.09308        2.44413        0.96739
C          4.75726        2.91483        0.67964
C         -0.00150       -4.69519        3.29776
C         -1.74081       -3.02751        3.97495
C         -2.43098       -5.05368        2.72440
C         -2.59107       -4.77360       -2.20943
C         -2.08549       -2.56114       -3.20559
C         -0.23887       -4.23309       -2.94759
C         -0.25981       -6.04854        0.07697
H          0.79450       -3.96153        3.42337
H         -0.13079       -5.21910        4.24447
H          0.32923       -5.41855        2.55636
H         -2.02107       -3.56603        4.87996
H         -0.93750       -2.34422        4.24636
H         -2.60071       -2.43839        3.65765
H         -2.16317       -5.83261        2.01471
H         -2.63969       -5.53557        3.67923
H         -3.34896       -4.58310        2.37379
H         -3.48313       -4.39590       -1.71084
H         -2.87847       -5.12229       -3.20103
H         -2.23572       -5.63425       -1.64866
H         -2.45107       -2.97520       -4.14487
H         -2.91654       -2.05219       -2.71794
H         -1.33041       -1.81816       -3.45743
H         -0.44818       -4.63525       -3.93844
H          0.51195       -3.45025       -3.05321
H          0.19508       -5.02835       -2.34590
H         -0.19857       -6.76965        0.89196
H         -0.26562       -6.59799       -0.86416
H          0.60937       -5.39014        0.10745
C          5.97098        1.30964       -2.29850
C          4.28537       -1.69704       -2.95580
C          5.88881       -1.97294       -1.02651
C          3.66973       -3.07743       -0.96127
C          4.73344        3.98833       -0.41884
C          4.14077        3.51124        1.96562
C          6.21012        2.53223        1.01637
H          4.69789       -2.57899       -3.44507
H          3.23966       -1.60555       -3.24885
H          4.81155       -0.82452       -3.33538
H          6.30358       -2.89358       -1.43622
H          6.49664       -1.14828       -1.38999
H          5.98912       -2.00865        0.05777
H          2.65275       -3.11797       -1.34855
H          4.18006       -3.97385       -1.31281
H          3.62430       -3.12311        0.12653
H          5.18088        3.62082       -1.33908
H          3.70970        4.28590       -0.64443
H          5.28315        4.87667       -0.10882
H          4.77728        4.29748        2.37099
H          3.16515        3.95645        1.77657
H          4.02622        2.74512        2.73209
H          6.23479        1.73934        1.76317
H          6.75924        3.38695        1.41059
H          6.74154        2.17810        0.13658
H          6.58581        2.20887       -2.26379
H          6.44635        0.59872       -2.97403
H          4.97833        1.56101       -2.67436
