171
-217.84334586
P         -1.65293        0.43437       -0.37190
P          1.60145       -0.34387       -0.37908
C         -0.92091        1.42826       -1.67640
C          0.88346       -1.27224       -1.73186
C         -0.09182        0.85139       -2.63286
C          0.56184        1.69166       -3.55505
C          0.33263        3.05665       -3.50980
C         -0.51676        3.60521       -2.57264
C         -1.13476        2.78511       -1.64949
C          1.10531       -2.62563       -1.79434
C          0.54361       -3.37221       -2.81156
C         -0.24966       -2.75338       -3.75481
C         -0.48349       -1.38853       -3.70780
C          0.10508       -0.62427       -2.68299
Cl         1.62406        0.64242        2.71839
Cl        -1.56034       -0.38224        2.82254
C         -1.31709       -0.74064       -4.75677
C          1.51437        1.15105       -4.56388
H         -0.68860        4.66899       -2.55140
H         -1.78504        3.20699       -0.90036
H          1.72356       -3.09776       -1.04760
H          0.72631       -4.43282       -2.86830
H          0.83553        3.69283       -4.21863
H         -0.69363       -3.33308       -4.54640
C         -3.84951       -3.33024       -1.58450
C         -2.84549       -3.40884       -0.62680
C         -2.15743       -2.24449       -0.31278
C         -2.47816       -1.05724       -0.92250
C         -3.48082       -0.99342       -1.85932
C         -4.19302       -2.13536       -2.20747
H         -4.38558       -4.22249       -1.84346
H         -1.37390       -2.25665        0.42522
H         -3.72148       -0.04223       -2.30406
C         -4.39905        2.74466        2.40294
C         -4.92967        1.71046        1.64329
C         -4.07616        1.03993        0.77602
C         -2.75606        1.40437        0.67259
C         -2.25091        2.43435        1.42855
C         -3.06700        3.12680        2.31429
H         -5.03644        3.25057        3.10457
H         -4.42872        0.20770        0.19341
H         -1.20377        2.67040        1.34814
C          4.17508       -2.92236        2.33127
C          2.80284       -3.14124        2.30535
C          2.04002       -2.37505        1.43427
C          2.62589       -1.40887        0.65369
C          3.98139       -1.19750        0.70331
C          4.78796       -1.96174        1.53656
H          4.78802       -3.50158        2.99586
H          0.97330       -2.51403        1.38640
H          4.40449       -0.41539        0.09937
C          4.05838        3.17957       -1.78427
C          3.02920        3.40275       -0.87839
C          2.28393        2.30773       -0.45935
C          2.55279        1.05714       -0.95596
C          3.56025        0.85509       -1.86726
C          4.34310        1.92045       -2.29715
H          4.66886        4.01060       -2.08582
H          1.49256        2.41741        0.26169
H          3.73275       -0.14353       -2.23162
Pd        -0.00723        0.09724        1.26594
C         -1.11720       -5.20471       -0.45663
C         -2.47570       -4.72302        0.07620
C         -3.52569       -5.82185       -0.17972
C         -2.38755       -4.49136        1.59828
H         -0.34870       -4.44987       -0.29758
H         -0.80243       -6.12223        0.04016
H         -1.17379       -5.40215       -1.52674
H         -3.27945       -6.72767        0.37428
H         -4.51626       -5.49660        0.13797
H         -3.57042       -6.08831       -1.23537
H         -2.16568       -5.42102        2.12199
H         -1.60602       -3.77736        1.85199
H         -3.33051       -4.10391        1.98323
C         -4.82361       -1.53392       -4.56520
C         -5.35270       -2.03681       -3.21162
C         -6.40650       -1.05268       -2.67264
C         -6.03427       -3.40110       -3.43532
H         -4.08711       -2.22781       -4.96854
H         -5.63195       -1.44468       -5.29082
H         -4.35499       -0.55558       -4.46781
H         -6.78863       -1.39106       -1.70997
H         -5.98574       -0.05681       -2.53911
H         -7.24939       -0.96861       -3.35841
H         -6.44792       -3.79073       -2.50531
H         -6.85454       -3.31072       -4.14739
H         -5.33050       -4.13079       -3.83542
C         -6.59281        0.75926        3.25332
C         -6.39821        1.30282        1.82659
C         -6.81170        0.20977        0.82290
C         -7.30544        2.52804        1.60660
H         -7.62348        0.44381        3.41448
H         -5.94436       -0.09900        3.42868
H         -6.35330        1.51615        3.99942
H         -7.86249       -0.05235        0.94557
H         -6.67345        0.55501       -0.20101
H         -6.22764       -0.69924        0.96575
H         -8.35666        2.25595        1.70030
H         -7.10050        3.31204        2.33438
H         -7.15264        2.94575        0.61162
C         -3.35805        5.51183        3.04963
C         -2.52544        4.22949        3.23425
C         -1.05420        4.55793        2.91874
C         -2.61730        3.75098        4.69429
H         -2.97183        6.31962        3.67106
H         -3.32992        5.84207        2.01136
H         -4.40043        5.35330        3.32286
H         -0.41426        3.69016        3.07775
H         -0.94605        4.88725        1.88602
H         -0.68816        5.35786        3.56212
H         -2.22276        4.50247        5.37786
H         -3.64916        3.54761        4.97847
H         -2.04586        2.83324        4.83283
C          1.41868       -5.22934        2.36800
C          2.10411       -4.15219        3.22547
C          1.04943       -3.41473        4.07404
C          3.09932       -4.84249        4.17751
H          0.91791       -5.96838        2.99318
H          0.67232       -4.78648        1.71217
H          2.14642       -5.74864        1.74474
H          0.54844       -4.09988        4.75744
H          1.51488       -2.62627        4.66492
H          0.28672       -2.95234        3.44903
H          2.58381       -5.54569        4.83155
H          3.85175       -5.40144        3.62152
H          3.60564       -4.11371        4.81020
C          6.78489       -0.67789        0.62038
C          6.30554       -1.74619        1.62324
C          7.02973       -3.06774        1.30601
C          6.66840       -1.28096        3.04491
H          6.32759        0.28942        0.82782
H          7.86564       -0.54934        0.67827
H          6.54038       -0.96488       -0.40219
H          6.76019       -3.42477        0.31217
H          8.11126       -2.93632        1.33554
H          6.77027       -3.84559        2.02305
H          7.73931       -1.09999        3.13542
H          6.14678       -0.35619        3.29087
H          6.39154       -2.02813        3.78780
C          3.98244        5.27264        0.48595
C          2.77066        4.81845       -0.34675
C          1.51543        4.86406        0.54438
C          2.55976        5.78276       -1.52924
H          3.82549        6.27212        0.89113
H          4.15184        4.59207        1.32020
H          4.88936        5.29397       -0.11742
H          1.63806        4.23533        1.42594
H          1.32160        5.87976        0.88885
H          0.63691        4.52518       -0.00404
H          1.72966        5.45155       -2.15209
H          2.33565        6.78916       -1.17608
H          3.44677        5.84237       -2.15846
C          5.42535        2.71647       -4.43011
C          5.53285        1.73176       -3.24961
C          5.58179        0.29940       -3.81656
C          6.83610        2.00021       -2.47573
H          6.25421        2.58068       -5.12470
H          4.49906        2.56397       -4.98213
H          5.44671        3.75116       -4.09093
H          5.72544       -0.43370       -3.02316
H          4.66188        0.05711       -4.34832
H          6.40905        0.18894       -4.51752
H          6.85993        3.01809       -2.08777
H          6.92987        1.31916       -1.63059
H          7.70684        1.86473       -3.11701
H         -0.69319       -0.31389       -5.54271
H          2.47023        1.67123       -4.50289
H         -1.92356        0.06210       -4.33494
H         -1.98952       -1.45939       -5.22517
H          1.12767        1.27944       -5.57587
H          1.70938        0.08953       -4.40701
