111
-148.55585115
P         -2.55985        2.08982        0.80830
P          0.12433        0.43692        0.49993
C         -1.48734        1.83913        2.24835
C         -0.30230        1.15113        2.10006
C         -3.36865        3.75404        0.81559
C         -2.75283        4.66568       -0.22333
C         -1.85496        2.31688        3.48988
H         -2.79227        2.83611        3.60508
C         -1.02604        2.11160        4.57944
H         -1.31188        2.48451        5.54941
C          0.16450        1.42701        4.42646
H          0.80830        1.26533        5.27530
C          0.52557        0.94081        3.18273
H          1.44389        0.39073        3.04810
Pd        -1.28716        1.48198       -1.01113
Cl        -2.96213        2.09081       -2.36978
Cl         0.13759        0.85279       -2.63367
C         -4.85207        3.41615        0.57383
C         -4.05161        0.99569        0.80367
H         -2.86049        4.24167       -1.22292
H         -3.23255        5.64725       -0.22822
H         -1.68498        4.80996       -0.04213
H         -5.05865        3.48995       -0.50280
H         -5.49984        4.16724        1.05094
H         -4.12570        0.58764       -0.21337
C         -5.20280        1.98362        1.06851
C         -3.92588       -0.11736        1.82112
H         -3.22896        4.16620        1.82297
H         -5.40651        2.00815        2.14792
H         -6.13171        1.62291        0.60106
H         -3.06843       -0.75673        1.60168
H         -3.78393        0.28862        2.82439
H         -4.81954       -0.74543        1.83943
C         -1.23035       -3.90203        0.21854
C         -1.13431       -3.28462        1.49259
C         -0.70633       -1.96888        1.55470
C         -0.45513       -1.25575        0.41244
C         -0.65280       -1.81531       -0.82162
C         -1.07766       -3.12421       -0.95730
O         -1.43755       -5.30383        0.12328
C         -1.45280       -4.03254        2.79655
H         -0.55368       -1.48285        2.50201
H         -0.45274       -1.20717       -1.68660
C         -1.33176       -3.67641       -2.36796
C          4.52908        0.70305       -0.62309
C          3.82287       -0.51439       -0.79473
C          2.48481       -0.54765       -0.44356
C          1.86878        0.53963        0.11806
C          2.57043        1.68772        0.37622
C          3.91537        1.78716        0.05660
O          5.83409        0.84911       -1.16420
C          4.46319       -1.77713       -1.39197
H          1.89563       -1.42955       -0.62243
H          2.04611        2.51331        0.82583
C          4.67763        3.07120        0.42005
C         -1.94703       -3.05247        3.88496
C         -2.57400       -5.06515        2.58053
C         -0.18230       -4.72938        3.30615
C         -2.41227       -4.77247       -2.35172
C         -1.84248       -2.55581       -3.30362
C         -0.01773       -4.23196       -2.93821
C         -0.23553       -6.06228        0.07238
H         -2.78427       -2.45793        3.52105
H         -2.28262       -3.59439        4.76886
H         -1.15809       -2.37443        4.20695
H         -2.84526       -5.55106        3.51743
H         -3.46487       -4.58520        2.17672
H         -2.26853       -5.84190        1.88373
H          0.18718       -5.45277        2.58339
H          0.61053       -4.00308        3.48377
H         -0.37389       -5.25593        4.24077
H         -2.63645       -5.11686       -3.36097
H         -2.09425       -5.63579       -1.77294
H         -3.33376       -4.39549       -1.90931
H         -2.14981       -2.96480       -4.26570
H         -2.70106       -2.04689       -2.86629
H         -1.07191       -1.81323       -3.50460
H          0.37773       -5.02928       -2.31317
H         -0.16509       -4.63088       -3.94144
H          0.73859       -3.44933       -2.99443
H          0.63199       -5.40805        0.16867
H         -0.23173       -6.79303        0.88107
H         -0.18019       -6.60091       -0.87336
C          5.85438        1.33972       -2.49888
C          5.95900       -1.86227       -1.03935
C          3.79323       -3.05017       -0.82374
C          4.27510       -1.76577       -2.91669
C          4.56505        4.07450       -0.73773
C          4.08244        3.71690        1.69216
C          6.15759        2.77201        0.72123
H          6.51706       -1.03631       -1.47292
H          6.10077       -1.83028        0.04039
H          6.39744       -2.78769       -1.41197
H          4.32830       -3.94420       -1.14311
H          3.79008       -3.03341        0.26581
H          2.76533       -3.15488       -1.16773
H          4.70440       -2.65872       -3.37027
H          3.21642       -1.73163       -3.17323
H          4.75125       -0.89778       -3.36628
H          5.08457        5.00292       -0.50200
H          4.99501        3.67188       -1.65161
H          3.52127        4.31320       -0.94037
H          4.02984        2.99370        2.50564
H          4.69778        4.55204        2.02614
H          3.08179        4.10847        1.51569
H          6.24528        2.02766        1.51194
H          6.68189        3.67170        1.04241
H          6.67169        2.38812       -0.15635
H          4.83872        1.52585       -2.85051
H          6.42914        2.26483       -2.53958
H          6.33668        0.61090       -3.14998
