111
-148.55457085
P         -2.39103        2.28673        0.67099
P          0.09468        0.31482        0.43331
C         -1.34968        1.96703        2.11661
C         -0.30253        1.07739        2.01966
C         -2.74068        4.09097        0.48000
C         -2.41027        4.53852       -0.92719
C         -1.62694        2.57750        3.32303
H         -2.43966        3.28255        3.38795
C         -0.86369        2.27830        4.43836
H         -1.08038        2.75333        5.38124
C          0.16712        1.36311        4.34639
H          0.75472        1.12089        5.21662
C          0.44587        0.75824        3.13393
H          1.23958        0.03218        3.04950
Pd        -1.50782        1.07141       -1.07963
Cl        -3.36307        1.53438       -2.25604
Cl        -0.59802       -0.23466       -2.66364
C         -4.23833        4.19693        0.83520
C         -4.11605        1.63577        0.87158
H         -3.00783        3.98583       -1.65480
H         -2.61592        5.60231       -1.06921
H         -1.35817        4.36175       -1.16432
H         -4.69203        5.02348        0.26899
H         -4.35387        4.46609        1.89540
H         -4.24548        0.85677        0.10815
C         -4.99176        2.86580        0.55748
C         -4.33958        1.05662        2.25243
H         -2.11640        4.62057        1.21245
H         -5.92057        2.81552        1.14412
H         -5.30508        2.83988       -0.49658
H         -5.33644        0.61968        2.34757
H         -3.60568        0.28068        2.48162
H         -4.24760        1.83101        3.01537
C         -0.93188       -4.11462        0.67718
C         -1.95977       -3.14369        0.54086
C         -1.59771       -1.80704        0.51809
C         -0.27963       -1.43153        0.51357
C          0.71964       -2.36907        0.51803
C          0.42868       -3.72265        0.56495
O         -1.26263       -5.45606        0.99905
C         -3.44872       -3.48652        0.36123
H         -2.35263       -1.03931        0.49530
H          1.74069       -2.02953        0.48976
C          1.59915       -4.71713        0.48127
C          4.40020        1.09181       -0.89618
C          3.51374        0.36167       -1.72660
C          2.21159        0.18155       -1.29407
C          1.79283        0.62943       -0.06887
C          2.67320        1.26037        0.77217
C          3.99230        1.47249        0.40735
O          5.68162        1.46746       -1.38075
C          3.92966       -0.19784       -3.09649
H          1.48527       -0.29009       -1.93038
H          2.31274        1.60155        1.72509
C          4.95095        2.12542        1.41658
C         -3.66813       -4.96912        0.01407
C         -4.21706       -3.13983        1.64651
C         -4.02323       -2.65861       -0.81083
C          2.57160       -4.27760       -0.63544
C          2.34993       -4.73544        1.82265
C          1.13153       -6.14108        0.13304
C         -1.37622       -5.67473        2.39514
H         -3.07772       -5.25068       -0.85716
H         -3.37437       -5.61456        0.83848
H         -4.71638       -5.17055       -0.20529
H         -3.85137       -3.71874        2.49241
H         -4.10680       -2.08471        1.89298
H         -5.28061       -3.34772        1.53210
H         -5.05449       -2.94196       -1.01915
H         -4.01834       -1.59187       -0.59498
H         -3.44004       -2.81929       -1.71710
H          2.04332       -4.17095       -1.58241
H          3.05087       -3.32782       -0.40429
H          3.36339       -5.01350       -0.77335
H          1.69940       -5.05869        2.63301
H          3.20076       -5.41515        1.78357
H          2.72397       -3.74295        2.07235
H          0.52018       -6.56061        0.92856
H          0.53612       -6.13732       -0.77930
H          1.98019       -6.80809       -0.01665
H         -1.66909       -6.70946        2.57423
H         -0.42170       -5.48193        2.88204
H         -2.12681       -5.00912        2.81822
C          5.71042        2.73049       -2.03401
C          3.10007       -1.45277       -3.45169
C          3.68428        0.86702       -4.17614
C          5.40838       -0.62552       -3.09396
C          4.53012        1.79090        2.86627
C          6.38714        1.60066        1.23665
C          4.91715        3.65084        1.23833
H          3.47562       -1.92004       -4.36168
H          3.15322       -2.18968       -2.65187
H          2.05315       -1.20983       -3.62674
H          2.63228        1.15014       -4.20415
H          4.26370        1.76641       -3.98332
H          3.95976        0.49397       -5.16220
H          5.68689       -1.07851       -4.04512
H          6.06725        0.22316       -2.92868
H          5.59572       -1.35249       -2.30433
H          4.41926        0.71503        2.99948
H          5.27913        2.14030        3.57658
H          3.58936        2.26939        3.13456
H          6.41201        0.51471        1.32074
H          6.78915        1.86859        0.26288
H          7.05341        2.01494        1.99294
H          5.58023        4.14187        1.95015
H          3.90936        4.03459        1.39550
H          5.22767        3.93854        0.23694
H          6.05692        2.60388       -3.05954
H          4.71666        3.17999       -2.03810
H          6.40731        3.39241       -1.52023
