111
-148.55471294
P         -2.52119        2.10005        0.92694
P          0.10257        0.37948        0.52722
C         -1.44353        1.76321        2.34520
C         -0.28375        1.04335        2.15765
C         -3.24755        3.80074        1.00161
C         -2.61125        4.71490       -0.02262
C         -1.78088        2.20796        3.60747
H         -2.69914        2.75300        3.75282
C         -0.94625        1.93746        4.67829
H         -1.20833        2.28454        5.66443
C          0.22000        1.22171        4.48567
H          0.86869        1.01009        5.31969
C          0.55064        0.76935        3.22083
H          1.45012        0.19738        3.05401
Pd        -1.32587        1.45977       -0.94103
Cl        -3.03428        2.22311       -2.17552
Cl         0.07133        0.87846       -2.60183
C         -4.75101        3.54264        0.78799
C         -4.06528        1.08087        0.92690
H         -1.53378        4.80122        0.13731
H         -2.76194        4.32987       -1.03223
H         -3.04208        5.71818        0.01505
H         -4.97926        3.65774       -0.28058
H         -5.34944        4.30996        1.30225
H         -4.18445        0.70996       -0.09999
C         -5.15944        2.11475        1.25123
C         -3.96754       -0.06969        1.90515
H         -3.06432        4.17352        2.01740
H         -5.33379        2.11696        2.33604
H         -6.11670        1.81372        0.79902
H         -3.14266       -0.73730        1.64682
H         -3.78795        0.29628        2.91773
H         -4.88719       -0.65912        1.92264
C         -1.15732       -3.97904        0.13917
C         -1.13256       -3.37557        1.42333
C         -0.73591       -2.05210        1.51960
C         -0.45057       -1.31933        0.39786
C         -0.58638       -1.86593       -0.85045
C         -0.97211       -3.18317       -1.01984
O         -1.32591       -5.38401        0.01783
C         -1.49077       -4.14558        2.70400
H         -0.63176       -1.57650        2.47862
H         -0.37033       -1.23934       -1.69836
C         -1.14465       -3.72720       -2.44599
C          4.45803        0.79473       -0.73088
C          3.81010       -0.46304       -0.82408
C          2.48622       -0.54611       -0.43008
C          1.83181        0.53547        0.09818
C          2.48111        1.72781        0.28157
C          3.80945        1.87860       -0.08398
O          5.73394        0.98169       -1.32624
C          4.49518       -1.71806       -1.38683
H          1.93777       -1.46332       -0.55123
H          1.92752        2.54776        0.70602
C          4.51295        3.21675        0.19176
C         -2.06833       -3.19109        3.77394
C         -2.56731       -5.21051        2.42631
C         -0.22515       -4.80713        3.26973
C          0.20661       -4.25314       -2.95402
C         -2.20301       -4.84383       -2.49223
C         -1.62869       -2.60880       -3.39797
C         -0.10531       -6.11401        0.02124
H         -2.42754       -3.75088        4.63718
H         -1.31890       -2.48987        4.13787
H         -2.90656       -2.62167        3.37398
H         -2.86854       -5.71241        3.34546
H         -3.45203       -4.75492        1.98274
H         -2.20446       -5.97164        1.73996
H          0.53336       -4.05778        3.49504
H         -0.44591       -5.35109        4.18781
H          0.20401       -5.50894        2.55869
H          0.58456       -5.04990       -2.31759
H          0.11773       -4.64391       -3.96730
H          0.95015       -3.45656       -2.96411
H         -3.15268       -4.48846       -2.09374
H         -2.36960       -5.18384       -3.51404
H         -1.89726       -5.70578       -1.90479
H         -1.87807       -3.01538       -4.37768
H         -2.51850       -2.12042       -3.00163
H         -0.86331       -1.85006       -3.55335
H         -0.11840       -6.84243        0.83190
H          0.00243       -6.65362       -0.91944
H          0.74176       -5.43926        0.15179
C          5.68129        1.41004       -2.68136
C          6.00453       -1.71071       -1.08537
C          3.91241       -2.99546       -0.73823
C          4.25529       -1.78725       -2.90278
C          3.92835        3.88912        1.45491
C          6.01682        3.01147        0.44996
C          4.30443        4.15658       -1.00536
H          6.47770       -2.62945       -1.43106
H          6.50365       -0.87913       -1.57628
H          6.18114       -1.62037       -0.01410
H          4.48193       -3.87521       -1.03704
H          3.94634       -2.92836        0.34885
H          2.88001       -3.16772       -1.03883
H          3.18824       -1.81606       -3.12237
H          4.67198       -0.91930       -3.40801
H          4.71298       -2.67872       -3.33079
H          3.94355        3.20299        2.30137
H          4.50866        4.77024        1.72784
H          2.90235        4.21876        1.29865
H          6.51987        2.61411       -0.42800
H          6.50191        3.95209        0.70960
H          6.17321        2.31140        1.26996
H          3.24256        4.32938       -1.17895
H          4.72315        3.73441       -1.91564
H          4.78008        5.12153       -0.83198
H          6.20395        2.36078       -2.78483
H          6.17873        0.67771       -3.31696
H          4.64544        1.52683       -3.00270
