111
-148.54879728
P         -1.43734        2.63781        1.21199
P         -0.35051       -0.26080        0.56908
C         -0.94640        1.53657        2.57366
C         -0.54570        0.24713        2.28921
C         -0.28679        4.06976        1.03708
C          0.34018        4.07937       -0.34086
C         -0.92967        1.98420        3.87932
H         -1.18602        3.00762        4.09488
C         -0.54739        1.12920        4.89848
H         -0.53921        1.47898        5.91793
C         -0.16795       -0.16782        4.61113
H          0.13499       -0.83138        5.40428
C         -0.15505       -0.60662        3.29945
H          0.17619       -1.60304        3.05179
Pd        -1.67684        1.22789       -0.60435
Cl        -2.76428        2.88159       -1.65240
Cl        -1.68599       -0.32509       -2.23206
C         -1.19463        5.28402        1.32654
C         -3.05691        3.52012        1.41098
H         -0.42998        4.14593       -1.11193
H          1.01435        4.92952       -0.46952
H          0.91163        3.16692       -0.52578
H         -0.85748        6.14367        0.72909
H         -1.08289        5.59215        2.37661
H         -3.73330        3.08163        0.66445
C         -2.69163        4.97280        1.03976
C         -3.65143        3.37331        2.79538
H          0.48160        3.95438        1.81285
H         -3.34475        5.66812        1.58716
H         -2.89970        5.14742       -0.02626
H         -3.73965        2.32286        3.08134
H         -3.03038        3.87331        3.53914
H         -4.64547        3.82293        2.85220
C         -0.81079       -4.73902       -0.12162
C         -1.86718       -4.00489        0.47606
C         -1.68188       -2.64995        0.70072
C         -0.53487       -2.01874        0.29629
C          0.44333       -2.70282       -0.37683
C          0.31979       -4.05677       -0.63848
O         -0.87054       -6.15717       -0.17614
C         -3.19325       -4.66034        0.89295
H         -2.43514       -2.06381        1.19891
H          1.31280       -2.15894       -0.70168
C          1.40616       -4.76070       -1.46694
C          3.57979        1.43285       -1.00002
C          3.29420        1.48576        0.38844
C          2.11188        0.92281        0.83810
C          1.21193        0.37761       -0.03973
C          1.43513        0.42155       -1.39058
C          2.59014        0.97892       -1.90876
O          4.86409        1.81251       -1.47313
C          4.25619        2.12882        1.39948
H          1.87386        0.90686        1.88684
H          0.66579        0.04060       -2.03892
C          2.74031        1.09567       -3.43364
C         -4.35305       -3.64158        0.81564
C         -3.55661       -5.82324       -0.04848
C         -3.07889       -5.16531        2.33912
C          2.49758       -5.29674       -0.52862
C          0.80815       -5.91021       -2.29822
C          2.05478       -3.77338       -2.46453
C         -0.29979       -6.80626        0.95295
H         -4.38623       -3.16657       -0.16455
H         -5.31144       -4.13282        0.98224
H         -4.25752       -2.86358        1.57153
H         -2.82653       -6.62645        0.01268
H         -4.52990       -6.24307        0.20429
H         -3.59208       -5.48220       -1.08260
H         -4.01077       -5.62530        2.66694
H         -2.28698       -5.90394        2.43719
H         -2.85097       -4.34327        3.01730
H          2.09078       -6.01344        0.18065
H          3.28775       -5.79234       -1.09210
H          2.94792       -4.48475        0.04188
H          1.56389       -6.36719       -2.93656
H          0.40064       -6.69063       -1.66031
H          0.00269       -5.54425       -2.93409
H          2.72682       -4.29562       -3.14511
H          1.29409       -3.27299       -3.06333
H          2.64498       -3.01390       -1.95373
H         -1.05583       -7.41970        1.44272
H          0.50980       -7.45963        0.62824
H          0.08652       -6.07111        1.66005
C          5.78450        0.73410       -1.58080
C          5.28383        1.08443        1.85999
C          4.97266        3.34152        0.77814
C          3.49096        2.64351        2.63964
C          1.35819        1.28328       -4.10173
C          3.59005        2.32128       -3.81516
C          3.38066       -0.18785       -3.98285
H          5.97218        1.50946        2.59008
H          4.78597        0.23175        2.32115
H          5.87000        0.71306        1.02314
H          5.60867        3.83855        1.51018
H          5.60242        3.04402       -0.05693
H          4.24843        4.06722        0.40928
H          4.15553        3.19999        3.30014
H          2.68019        3.30874        2.34601
H          3.07157        1.82569        3.22386
H          0.74496        0.38711       -4.02111
H          0.81571        2.11094       -3.64538
H          1.46781        1.50013       -5.16393
H          3.16248        3.23016       -3.39296
H          4.60824        2.22959       -3.44579
H          3.64152        2.44126       -4.89700
H          4.35913       -0.36151       -3.54137
H          3.50335       -0.13128       -5.06411
H          2.75824       -1.05369       -3.75954
H          6.08301        0.60793       -2.62123
H          6.67670        0.95833       -0.99627
H          5.33307       -0.18980       -1.21693
