45
-71.81525876
C          0.33345        0.61082        2.48618
P          0.93937        0.62390        0.76426
P         -1.60821        0.27764       -1.03238
C         -2.37512       -0.06725       -2.65082
Cl         1.82494       -2.35481        0.36738
H         -0.75224        0.64235        2.49552
H         -2.75215       -1.08582       -2.66914
Cl        -1.08248       -2.85856       -1.36916
C          0.29244        2.04422       -0.14084
C         -0.81039        1.89307       -0.95198
C         -1.32019        2.97546       -1.63925
C         -0.70999        4.21193       -1.52120
C          0.40049        4.36177       -0.71279
C          0.90306        3.27534       -0.01849
H         -2.19435        2.84964       -2.25705
H         -1.10385        5.05903       -2.05833
H          0.87508        5.32483       -0.62091
H          1.76830        3.37638        0.61687
Pd         0.03416       -1.20785       -0.34561
H         -1.63880        0.05034       -3.44073
H          0.71538        1.47584        3.02076
H         -3.20007        0.61701       -2.82708
C         -4.48015       -0.22269        2.45342
C         -3.98939        1.03098        2.14377
C         -3.12497        1.18809        1.07544
C         -2.76410        0.09286        0.32522
C         -3.24156       -1.15924        0.63557
C         -4.10646       -1.31987        1.70215
H         -5.15334       -0.34571        3.28607
H         -4.27739        1.88548        2.73382
H         -2.72655        2.15811        0.82547
H         -2.90911       -2.00506        0.05494
H         -4.48140       -2.29942        1.94933
C          5.46894        0.48092        0.35884
C          4.89782        0.35310        1.60964
C          3.52242        0.40140        1.74897
C          2.72973        0.57992        0.63815
C          3.29378        0.70361       -0.61118
C          4.66931        0.65568       -0.75315
H          6.54045        0.44041        0.24989
H          5.52213        0.21128        2.47651
H          3.06594        0.29392        2.71935
H          2.65413        0.83430       -1.47026
H          5.11386        0.75073       -1.73016
H          0.66190       -0.29429        2.98907
