58
-89.86574942
P          1.71823        0.22122        0.75256
C          3.00754        1.43281        0.45282
C          4.28704        1.02271        0.15589
C          5.27290        1.96393       -0.07956
C          4.96797        3.30942       -0.01628
C          3.68204        3.71569        0.28157
C          2.69812        2.77191        0.51757
H          1.68693        3.07309        0.74273
H          4.50790       -0.03123        0.10485
C          2.25433       -1.41872        0.24882
C          2.42790       -1.64748       -1.09727
C          2.80097       -2.90143       -1.54362
C          2.99896       -3.92082       -0.63379
C          2.82860       -3.68733        0.71675
C          2.45543       -2.43129        1.15982
H          2.31466       -2.24325        2.21124
H          2.25905       -0.83832       -1.79038
C          1.33187        0.31970        2.55010
C          0.04369       -0.36096        2.98511
C         -1.21662        0.37497        2.54774
P         -1.71361       -0.02880        0.82798
C         -1.91640       -1.81262        0.74009
C         -3.06258       -2.40109        1.22461
C         -3.19636       -3.77784        1.19061
C         -2.17487       -4.55709        0.68380
C         -1.01884       -3.96385        0.21758
C         -0.89126       -2.58790        0.25073
H          0.01775       -2.11811       -0.08150
H         -3.84456       -1.78236        1.63538
C         -3.23478        0.83844        0.41491
C         -4.21464        0.20751       -0.31740
C         -5.36745        0.88991       -0.66131
C         -5.52885        2.20533       -0.27451
C         -4.53856        2.84007        0.44854
C         -3.38613        2.15457        0.78986
H         -2.59871        2.64690        1.33772
H         -4.06559       -0.81113       -0.63693
Pd        -0.06401        0.58824       -0.68523
Cl         1.45196        1.38593       -2.14742
Cl        -1.75121        0.85005       -2.14996
H         -2.07395        0.10263        3.16851
H         -1.08967        1.45507        2.63408
H          0.01858       -1.39116        2.60595
H          0.04404       -0.45765        4.08223
H          2.19989       -0.09636        3.06697
H          1.30205        1.38045        2.80678
H          6.27554        1.64688       -0.31506
H          3.44304        4.76550        0.32612
H          2.93295       -3.08151       -2.59779
H          2.98277       -4.48408        1.42579
H         -4.09525       -4.24087        1.56328
H         -0.21312       -4.56902       -0.16412
H         -6.13390        0.39721       -1.23670
H         -4.65940        3.87000        0.74171
H          5.73443        4.04396       -0.20256
H          3.28767       -4.90048       -0.97821
H         -2.27735       -5.62974        0.65856
H         -6.42524        2.73966       -0.54414
