111
-148.55113603
P         -2.17457        2.21423        1.38223
P          0.14158        0.21461        0.50530
C         -1.10101        1.46749        2.63489
C         -0.12542        0.57257        2.25358
C         -2.30968        4.04165        1.62836
C         -1.90588        4.77820        0.36995
C         -1.27489        1.77056        3.97012
H         -2.02460        2.48887        4.25933
C         -0.48568        1.15393        4.92550
H         -0.62250        1.38828        5.96856
C          0.46939        0.23161        4.54385
H          1.07642       -0.25767        5.28772
C          0.64809       -0.06159        3.20378
H          1.38124       -0.78908        2.89168
Pd        -1.52617        1.33832       -0.65824
Cl        -3.28385        2.43750       -1.52242
Cl        -0.86783        0.37423       -2.57492
C         -3.78769        4.23809        2.02630
C         -3.95652        1.72660        1.54297
H         -1.96802        5.86123        0.50097
H         -0.88331        4.53025        0.07475
H         -2.56168        4.50847       -0.45962
H         -4.14303        5.20749        1.64762
H         -3.87604        4.29855        3.12097
H         -4.19427        1.12299        0.65634
C         -4.68740        3.08392        1.50142
C         -4.21457        0.93128        2.80560
H         -1.63658        4.29983        2.45732
H         -5.61749        3.01968        2.08483
H         -4.99826        3.30718        0.47016
H         -5.25126        0.59066        2.85963
H         -3.56605        0.05441        2.86522
H         -4.02542        1.54038        3.69059
C         -1.12842       -4.07397       -0.32473
C         -2.05126       -3.14192        0.21593
C         -1.60422       -1.85876        0.48573
C         -0.32890       -1.47486        0.16204
C          0.53002       -2.33630       -0.46793
C          0.14829       -3.63470       -0.76039
O         -1.46590       -5.45179       -0.39341
C         -3.51335       -3.50189        0.52160
H         -2.24980       -1.13549        0.95440
H          1.50963       -1.97800       -0.73029
C          1.11933       -4.54691       -1.52614
C          4.41005        0.97262       -0.92951
C          4.10859        1.10990        0.45141
C          2.80823        0.87388        0.86555
C          1.81404        0.58827       -0.03513
C          2.08006        0.59072       -1.37944
C          3.35455        0.82043       -1.86637
O          5.75942        0.90553       -1.36215
C          5.14432        1.50810        1.51664
H          2.56207        0.90729        1.91138
H          1.26443        0.40943       -2.05696
C          3.53427        0.91732       -3.39092
C         -3.62535       -3.97523        1.97849
C         -4.42561       -2.26914        0.32715
C         -4.03026       -4.59375       -0.43273
C          2.00819       -3.71594       -2.47918
C          2.02286       -5.28296       -0.52589
C          0.35578       -5.56132       -2.39698
C         -1.12776       -6.18642        0.77615
H         -3.01034       -4.85494        2.15445
H         -3.29255       -3.19565        2.66349
H         -4.65527       -4.22796        2.22910
H         -4.23674       -1.50601        1.07950
H         -4.27328       -1.82545       -0.65646
H         -5.47600       -2.54680        0.41099
H         -5.08678       -4.79730       -0.26019
H         -3.90897       -4.28426       -1.47026
H         -3.48969       -5.52723       -0.29817
H          1.39601       -3.08831       -3.12612
H          2.69958       -3.07628       -1.93259
H          2.60885       -4.36620       -3.11472
H          1.43784       -5.89877        0.15326
H          2.73086       -5.93051       -1.04252
H          2.59066       -4.57306        0.07516
H          1.04240       -6.16136       -2.99361
H         -0.23251       -6.24312       -1.78775
H         -0.32455       -5.04803       -3.07573
H         -0.64254       -5.53722        1.50609
H         -2.02954       -6.61404        1.21395
H         -0.45557       -7.00286        0.51251
C          6.26181       -0.42021       -1.38515
C          5.50569        0.27652        2.36321
C          6.42273        2.09858        0.89653
C          4.54577        2.59540        2.43656
C          4.89966        1.50674       -3.78453
C          3.37846       -0.47936       -4.01422
C          2.45232        1.85340       -3.97418
H          5.94567       -0.50718        1.74949
H          6.22297        0.53585        3.14148
H          4.62101       -0.13706        2.84650
H          7.10202        2.46189        1.66733
H          6.95733        1.35359        0.31187
H          6.18069        2.93064        0.23627
H          5.28847        2.95242        3.14962
H          4.20465        3.44880        1.85120
H          3.70028        2.22074        3.01106
H          5.05928        2.46671       -3.29478
H          5.71278        0.84548       -3.49475
H          4.96645        1.65865       -4.86157
H          2.39346       -0.89170       -3.79921
H          3.49428       -0.43794       -5.09688
H          4.12257       -1.17060       -3.62273
H          1.45058        1.44964       -3.83773
H          2.59994        1.99889       -5.04389
H          2.48965        2.83041       -3.49336
H          5.65461       -1.03908       -2.04405
H          7.29020       -0.40882       -1.74682
H          6.23766       -0.84618       -0.38346
