105
-153.06537094
Cl         0.08164        3.61844        1.83975
Pd        -0.44387        1.94773        0.42967
P         -1.04292        0.37108       -1.26198
N         -1.02605       -1.40272       -1.31233
C         -0.00345       -2.36398       -1.26165
C          0.12390       -3.12514       -0.07286
C          1.14594       -4.07949        0.04847
C          1.33588       -4.77555        1.37250
C          2.22977       -6.02349        1.29588
C          3.48786       -5.74532        0.46540
C          3.11999       -5.31710       -0.96498
C          2.00920       -4.29882       -1.02844
C          1.85423       -3.55363       -2.19529
C          0.87330       -2.60097       -2.31509
H          0.77666       -2.02688       -3.21826
H          2.52781       -3.73121       -3.01657
H          4.00195       -4.91266       -1.47800
H          4.06876       -4.94753        0.94524
H          2.49729       -6.37547        2.30220
H          1.76550       -4.05687        2.08080
C         -0.66681       -2.64834        1.09342
C         -0.21073       -1.44736        1.68557
C         -1.01105       -0.78903        2.61150
C         -2.23888       -1.30344        2.94464
C         -2.72329       -2.46844        2.35266
C         -4.10362       -2.94516        2.72496
C         -4.73161       -3.86883        1.66959
C         -3.74036       -4.95833        1.24501
C         -2.46026       -4.34330        0.65517
C         -1.93995       -3.14754        1.41384
H         -1.66793       -5.09963        0.59673
H         -4.20681       -5.65004        0.52949
H         -5.01566       -3.27505        0.79143
H         -4.74821       -2.07427        2.90025
H         -2.85513       -0.79063        3.66366
H         -0.65667        0.12841        3.04713
N          0.98114       -0.91900        1.22336
P          1.42608        0.76565        1.23313
C          2.41081        1.08667       -0.22923
C          2.13846        0.34490       -1.35265
C          2.82777        0.58993       -2.52465
C          3.79101        1.58751       -2.57771
C          4.04406        2.33424       -1.43381
C          3.35625        2.08320       -0.26006
H          3.53991        2.66813        0.62672
H          4.77685        3.12206       -1.47134
C          4.49105        1.89266       -3.85570
H          2.60154        0.02553       -3.41295
H          1.34964       -0.38694       -1.32138
C          2.41245        1.04109        2.70483
C          2.39205        2.22988        3.39278
C          3.19252        2.39762        4.50616
C          4.02678        1.37460        4.93634
C          4.02757        0.17577        4.23590
C          3.22441        0.01252        3.12049
H          3.22003       -0.91676        2.57241
H          4.65926       -0.62968        4.56950
C          4.87074        1.54390        6.15160
H          3.17192        3.32586        5.05126
H          1.73894        3.01798        3.06063
H          1.55186       -1.46033        0.58718
H         -1.68987       -1.50566       -0.55368
C         -0.49960        1.03714       -2.83239
C         -0.53912        0.21172       -3.93003
C         -0.07587        0.66682       -5.15177
C          0.42009        1.95721       -5.28088
C          0.43702        2.78116       -4.16347
C         -0.03040        2.32475       -2.94528
H         -0.03789        2.97290       -2.08501
H          0.82217        3.78257       -4.25226
C          0.96105        2.43381       -6.58366
H         -0.09067        0.01868       -6.01126
H         -0.93564       -0.78524       -3.82320
C         -2.82426        0.61207       -1.12770
C         -3.55264        1.10797       -2.18168
C         -4.92064        1.26565       -2.05625
C         -5.56776        0.91656       -0.87834
C         -4.81302        0.42050        0.17588
C         -3.44517        0.26677        0.04824
H         -2.85818       -0.12537        0.86225
H         -5.30189        0.15776        1.09841
C         -7.03680        1.11209       -0.73415
H         -5.49531        1.66505       -2.87438
H         -3.04880        1.37596       -3.09588
Cl        -2.02629        3.30555       -0.43010
H          2.81967       -6.19610       -1.54767
H          1.66685       -6.84578        0.83675
H          4.14841       -6.62386        0.45328
H          0.35337       -5.03583        1.78501
H         -3.48055       -5.57044        2.11773
H         -2.64429       -4.03795       -0.38194
H         -4.04591       -3.46713        3.68747
H         -5.66595       -4.31269        2.04142
H          4.58429        1.00033       -4.47629
H          3.94206        2.64287       -4.42660
H          5.49579        2.27619       -3.67306
H          4.33293        1.22182        7.04431
H          5.78683        0.95593        6.07982
H          5.15769        2.58729        6.28956
H          0.41898        1.99072       -7.42024
H          0.87774        3.51786       -6.67251
H          2.01410        2.16778       -6.68573
H         -7.26018        2.12326       -0.39129
H         -7.54927        0.95759       -1.68474
H         -7.45903        0.41098       -0.01282
