58
-89.86894202
P          1.71245       -0.32673        0.89579
C          1.51352        1.46466        0.86565
C          1.54798        2.08445       -0.36327
C          1.36265        3.45148       -0.45567
C          1.14800        4.19218        0.68886
C          1.12550        3.56989        1.92110
C          1.31116        2.20254        2.00930
H          1.30888        1.71696        2.97044
H          1.71307        1.48875       -1.24769
C          3.39414       -0.78211        0.46402
C          3.70960       -2.11058        0.29431
C          5.00175       -2.47225       -0.04352
C          5.96810       -1.49947       -0.20792
C          5.64645       -0.16742       -0.03690
C          4.35364        0.19089        0.29986
H          4.08710        1.22682        0.43279
H          2.94099       -2.85809        0.41341
C          1.28289       -1.09032        2.51977
C         -0.18927       -1.43222        2.69535
C         -1.13143       -0.25308        2.48513
P         -1.59913       -0.06620        0.71261
C         -3.03781       -1.09315        0.39906
C         -4.27891       -0.50224        0.32899
C         -5.39842       -1.27876        0.08902
C         -5.26523       -2.64292       -0.07900
C         -4.01790       -3.23125       -0.00755
C         -2.90048       -2.45232        0.23381
H         -1.92013       -2.89873        0.27815
H         -4.36534        0.56495        0.45778
C         -1.92951        1.64396        0.26900
C         -2.16107        2.60333        1.22863
C         -2.40073        3.91103        0.84662
C         -2.41219        4.24773       -0.49278
C         -2.19284        3.27964       -1.45241
C         -1.95482        1.97389       -1.06659
H         -1.79288        1.19922       -1.79897
H         -2.15474        2.33057        2.27115
Pd         0.09311       -0.75535       -0.71574
Cl         1.79081       -1.29176       -2.08326
Cl        -1.46529       -1.06964       -2.30404
H         -2.07096       -0.37947        3.02937
H         -0.68184        0.67375        2.84087
H         -0.46604       -2.23618        1.99963
H         -0.34157       -1.85853        3.69933
H          1.90251       -1.98524        2.61657
H          1.61941       -0.40260        3.29690
H          1.37850        3.93412       -1.41894
H          0.96050        4.14924        2.81469
H          5.25117       -3.51133       -0.18260
H          6.39949        0.59217       -0.16813
H         -6.37118       -0.81876        0.03079
H         -3.91321       -4.29501       -0.14440
H         -2.57476        4.66683        1.59479
H         -2.20643        3.53911       -2.49816
H          0.99627        5.25703        0.62028
H          6.97435       -1.78019       -0.47322
H         -6.13585       -3.24917       -0.26927
H         -2.59511        5.26758       -0.78960
