72
-98.09572052
Fe        -0.02133        2.75414       -0.05600
P          1.91746       -0.07451       -0.05567
P         -1.80675       -0.08347       -0.08959
C          1.42862        1.55683        0.63114
C          0.45483        1.76178        1.69004
C          0.36555        3.18990        1.93362
C          1.32614        3.85704        1.07295
C          2.01403        2.84408        0.29118
C         -1.37506        1.54056       -0.82617
C         -1.98001        2.81980       -0.48793
C         -1.27536        3.85185       -1.23035
C         -0.27820        3.21097       -2.06823
C         -0.34273        1.78211       -1.82074
C          3.27823       -0.75120        1.00346
C          4.49378        0.01327        0.45222
C          2.92309        0.14954       -1.60392
C          4.37320        0.28419       -1.07606
C         -3.13569       -0.94574       -1.06090
C         -4.32139       -1.01124       -0.07490
C         -2.71948        0.19201        1.49836
C         -4.18832        0.03314        1.06535
H         -0.10443        0.98198        2.20635
H         -0.28288        3.67386        2.66735
H          1.52314        4.93094        1.04411
H          2.80421        3.01477       -0.44253
H         -2.79858        2.97550        0.21841
H          0.31054        1.02743       -2.25524
Cl         1.63468       -3.06806       -0.26615
Cl        -1.48241       -3.09114        0.42357
Pd         0.05112       -1.48284        0.02887
H          3.36526       -1.82011        0.77734
C          3.04814       -0.54469        2.49710
H          2.58575        1.07931       -2.07692
C          2.77740       -1.02184       -2.57596
H          5.42493       -0.52604        0.68616
H          4.56916        0.96934        0.99081
H          4.78104        1.27582       -1.32240
H          5.01053       -0.42692       -1.61988
H         -1.48911        4.92282       -1.19592
H          0.40582        3.71367       -2.75539
H          3.98657       -0.74543        3.03253
H          3.57490       -0.95793       -3.32954
H         -2.76270       -1.95180       -1.28944
C         -3.46828       -0.22310       -2.36440
H         -2.50403        1.21564        1.82814
C         -2.29051       -0.80566        2.57021
H         -4.38736       -2.01847        0.36187
H         -5.26506       -0.86723       -0.62025
H         -4.58405        1.00090        0.72292
H         -4.80776       -0.25400        1.92711
H         -4.44018       -0.57704       -2.73572
H         -1.19561       -0.85770        2.60069
C          1.93681       -1.41396        3.06113
H          0.98404       -1.19472        2.58164
H          2.14120       -2.47343        2.89595
H          1.80308       -1.26609        4.13512
C          1.43099       -1.10480       -3.27667
H          1.23712       -0.21020       -3.87121
H          1.37669       -1.96095       -3.95303
H          0.61463       -1.21087       -2.56300
C         -2.41304       -0.41788       -3.44133
H         -1.43709       -0.07165       -3.10545
H         -2.30357       -1.47255       -3.70120
H         -2.65576        0.12431       -4.35800
C         -2.82871       -0.47423        3.95438
H         -2.50000        0.51562        4.27682
H         -3.91957       -0.47228        3.97190
H         -2.49225       -1.19230        4.70572
H          2.83409        0.51639        2.67952
H          2.97654       -1.95164       -2.02760
H         -3.61258        0.84377       -2.14928
H         -2.61128       -1.81008        2.26447
