111
-148.55419233
P         -1.61359        2.75870        0.69487
P         -0.57809       -0.22607        0.37022
C         -1.56894        1.64980        2.13109
C         -1.19859        0.33053        1.97331
C         -0.35651        4.10230        0.88563
C          0.70997        3.99466       -0.18360
C         -1.88024        2.13085        3.38694
H         -2.12716        3.17244        3.51129
C         -1.84941        1.28123        4.47911
H         -2.09665        1.65630        5.45883
C         -1.49769       -0.04458        4.31553
H         -1.46982       -0.70576        5.16600
C         -1.16131       -0.51807        3.06043
H         -0.85374       -1.54207        2.92377
Pd        -1.46356        1.32668       -1.11221
Cl        -2.66167        2.75100       -2.35557
Cl        -1.08614       -0.18100       -2.73820
C         -1.19517        5.39444        0.81423
C         -3.15980        3.77614        0.61576
H          0.26425        4.04565       -1.17913
H          1.44019        4.80328       -0.10308
H          1.24918        3.04793       -0.11582
H         -1.11948        5.80609       -0.20150
H         -0.76905        6.16448        1.47482
H         -3.40363        3.86581       -0.45060
C         -2.69152        5.13984        1.15377
C         -4.31743        3.14932        1.36323
H          0.07377        3.97518        1.88741
H         -2.83378        5.16203        2.24282
H         -3.32770        5.94616        0.75764
H         -4.53755        2.14926        0.98288
H         -4.09618        3.05304        2.42632
H         -5.22318        3.75306        1.27212
C         -0.69069       -4.73799       -0.24267
C          0.21333       -4.16826        0.69321
C          0.23037       -2.78970        0.83092
C         -0.66485       -1.99953        0.15758
C         -1.62369       -2.55545       -0.64744
C         -1.68776       -3.92512       -0.84430
O         -0.54590       -6.09359       -0.63488
C          1.16306       -4.98968        1.58204
H          0.96104       -2.31320        1.46344
H         -2.31092       -1.89814       -1.15230
C         -2.83086       -4.47254       -1.71549
C          3.70912        1.26548       -0.03064
C          3.06957        1.28662        1.23513
C          1.78299        0.78441        1.32961
C          1.11938        0.33071        0.22033
C          1.69672        0.39881       -1.01959
C          2.97398        0.90335       -1.18823
O          5.08967        1.58337       -0.13175
C          3.75710        1.83405        2.49525
H          1.27565        0.74705        2.27728
H          1.11122        0.07967       -1.86375
C          3.52839        1.06454       -2.61235
C          1.06644       -4.48200        3.03812
C          0.79997       -6.48469        1.60397
C          2.60795       -4.81793        1.08471
C         -2.54587       -4.14562       -3.19096
C         -3.01904       -5.99059       -1.55006
C         -4.16116       -3.80630       -1.29975
C          0.35102       -6.25876       -1.72079
H          0.03619       -4.52096        3.39093
H          1.67311       -5.09486        3.70434
H          1.41661       -3.45556        3.13368
H          1.42019       -7.02934        2.31551
H         -0.24313       -6.62255        1.88651
H          0.94352       -6.94025        0.62718
H          2.90322       -3.76916        1.09922
H          3.30446       -5.37116        1.71422
H          2.71881       -5.17950        0.06427
H         -3.35451       -4.49671       -3.83135
H         -2.44278       -3.07095       -3.33829
H         -1.62367       -4.61525       -3.52718
H         -3.15172       -6.24912       -0.50010
H         -3.89235       -6.34052       -2.09999
H         -2.15616       -6.53800       -1.92171
H         -4.15897       -2.73646       -1.50111
H         -4.99867       -4.23654       -1.84833
H         -4.34705       -3.94984       -0.23576
H          0.43177       -7.31877       -1.96244
H         -0.01359       -5.71788       -2.59236
H          1.33431       -5.87357       -1.45625
C          5.95169        0.45639       -0.03971
C          4.68212        3.01421        2.14681
C          2.71360        2.36200        3.50613
C          4.56074        0.70942        3.16484
C          2.38374        1.35835       -3.60995
C          4.50725        2.24976       -2.69629
C          4.22872       -0.23502       -3.03595
H          4.12690        3.79752        1.63169
H          5.12304        3.44529        3.04525
H          5.49677        2.70070        1.49842
H          3.20338        2.85995        4.34262
H          2.04617        3.08198        3.03408
H          2.11121        1.55606        3.92287
H          5.04920        1.06499        4.07172
H          3.90900       -0.12119        3.43512
H          5.32899        0.32428        2.49886
H          2.78146        1.60381       -4.59428
H          1.72688        0.49926       -3.73676
H          1.78208        2.20195       -3.27248
H          5.38590        2.08409       -2.07811
H          4.84871        2.40452       -3.71947
H          4.02801        3.16724       -2.35612
H          5.05416       -0.47354       -2.36938
H          4.62502       -0.15312       -4.04770
H          3.53185       -1.07255       -3.01291
H          5.37397       -0.45122        0.13989
H          6.51747        0.35021       -0.96502
H          6.65889        0.60520        0.77617
