45
-71.81435923
C          2.30502        1.22994        2.43931
P          1.52907        0.86286        0.83034
P         -1.00526        0.15311       -0.92866
C         -0.34579       -0.33016       -2.56014
Cl         1.52087       -1.96622        2.20372
H          2.84361        0.35633        2.79522
H          0.72160       -0.13297       -2.59985
Cl        -1.44073       -2.57565        0.72821
C          0.46533        2.19178        0.22899
C         -0.62241        1.87645       -0.55630
C         -1.42668        2.87560       -1.06426
C         -1.13560        4.19941       -0.78539
C         -0.04109        4.51630       -0.00417
C          0.76399        3.51087        0.50192
H         -2.27687        2.61237       -1.67307
H         -1.76232        4.98239       -1.17950
H          0.18834        5.54731        0.20937
H          1.62730        3.74744        1.10233
Pd         0.14508       -0.99259        0.71943
H         -0.83811        0.23927       -3.34327
H          1.54169        1.49363        3.16576
H         -0.51274       -1.39009       -2.72958
C         -5.46031       -0.59660       -0.39569
C         -4.72983        0.02824        0.59550
C         -3.37671        0.25416        0.41485
C         -2.76602       -0.14414       -0.75239
C         -3.48926       -0.77024       -1.74200
C         -4.84233       -0.99633       -1.56416
H         -6.51387       -0.77564       -0.25573
H         -5.21018        0.33599        1.50970
H         -2.79025        0.73666        1.18136
H         -2.99572       -1.08409       -2.64728
H         -5.41215       -1.48738       -2.33586
C          4.52036       -0.31219       -2.38218
C          3.81624        0.87050       -2.50001
C          2.91485        1.23683       -1.51686
C          2.72987        0.42079       -0.42482
C          3.42039       -0.76302       -0.30799
C          4.32316       -1.13178       -1.28800
H          5.22250       -0.59832       -3.14818
H          3.96676        1.50647       -3.35684
H          2.35136        2.15232       -1.59769
H          3.22421       -1.40210        0.53809
H          4.86510       -2.05905       -1.20037
H          3.00240        2.05656        2.33814
