105
-153.05877081
Cl         0.43870        3.63869        1.61022
Pd        -0.07793        1.98477        0.17126
P         -0.73100        0.23742       -1.30284
N          0.11495       -1.18135       -1.94898
C          0.20038       -2.50711       -1.53546
C         -0.11887       -2.97137       -0.23001
C          0.20819       -4.29788        0.12839
C          0.12222       -4.72405        1.57615
C         -0.04634       -6.23978        1.74906
C          1.04577       -6.98464        0.97500
C          0.99848       -6.63760       -0.52326
C          0.70480       -5.18672       -0.82848
C          0.92996       -4.73089       -2.12035
C          0.70738       -3.42145       -2.45847
H          0.93261       -3.07931       -3.45383
H          1.31070       -5.41862       -2.85657
H          1.94711       -6.91118       -1.00257
H          2.02726       -6.71049        1.38200
H         -0.03920       -6.52006        2.81191
H          1.04097       -4.39919        2.07938
C         -0.71289       -2.09109        0.81145
C          0.10324       -1.09419        1.40561
C         -0.36537       -0.40244        2.52269
C         -1.61261       -0.66666        3.02642
C         -2.44388       -1.61576        2.43818
C         -3.80197       -1.85743        3.04278
C         -4.38566       -3.22825        2.67079
C         -4.31826       -3.44475        1.15609
C         -2.87250       -3.36077        0.63654
C         -2.00273       -2.32799        1.31944
H         -2.39937       -4.34365        0.73402
H         -4.92908       -2.68206        0.66038
H         -5.41734       -3.32938        3.03665
H         -4.48048       -1.06250        2.71186
H         -1.96965       -0.12153        3.88360
H          0.25262        0.35727        2.96489
N          1.26798       -0.73663        0.73310
P          1.82595        0.87668        0.96877
C          2.93626        1.35133       -0.35051
C          3.18549        2.68619       -0.56399
C          3.95375        3.07478       -1.64621
C          4.47251        2.12748       -2.51952
C          4.19702        0.78540       -2.29247
C          3.42900        0.39813       -1.20940
H          3.19990       -0.64144       -1.03982
H          4.57958        0.04620       -2.97540
C          5.26595        2.54392       -3.70871
H          4.14173        4.11919       -1.82727
H          2.74090        3.41545        0.09523
C          2.62280        0.95795        2.57159
C          3.37522       -0.12158        2.96867
C          4.00244       -0.10564        4.20229
C          3.88233        0.99463        5.04102
C          3.10777        2.06952        4.62554
C          2.48308        2.04981        3.39346
H          1.87472        2.87648        3.06888
H          2.99450        2.92061        5.27515
C          4.53407        1.00288        6.38002
H          4.58690       -0.95137        4.52196
H          3.45664       -0.97574        2.31445
H          1.12302       -0.84627       -0.26991
H          0.32169       -0.98949       -2.92138
C         -0.61209        1.40368       -2.66953
C         -1.72379        1.89330       -3.31221
C         -1.57482        2.79883       -4.34623
C         -0.31226        3.22374       -4.73854
C          0.79832        2.70993       -4.08318
C          0.64664        1.80402       -3.04962
H          1.50684        1.42046       -2.52548
H          1.78273        3.02740       -4.38154
C         -0.15106        4.18474       -5.86453
H         -2.44196        3.18586       -4.85356
H         -2.70359        1.57520       -2.99658
C         -2.46277       -0.19101       -1.13457
C         -3.00884       -1.00643       -2.09701
C         -4.35735       -1.31446       -2.05585
C         -5.16536       -0.80817       -1.04709
C         -4.59489        0.01368       -0.08462
C         -3.24689        0.31683       -0.12659
H         -2.80529        0.95716        0.61930
H         -5.21521        0.42220        0.69463
C         -6.62263       -1.11341       -1.01886
H         -4.79075       -1.94739       -2.81118
H         -2.37587       -1.39523       -2.87929
Cl        -2.00366        3.05538       -0.28739
H          0.23617       -7.25213       -1.01709
H         -1.03080       -6.54123        1.36981
H          0.95805       -8.06962        1.12765
H         -0.68379       -4.18928        2.09003
H         -4.77534       -4.40572        0.88122
H         -2.87080       -3.15203       -0.44043
H         -3.73497       -1.75320        4.13328
H         -3.81323       -4.01641        3.17606
H          4.62978        2.61834       -4.59175
H          5.73565        3.51556       -3.54985
H          6.05769        1.82488       -3.92357
H          5.44519        0.40296        6.37846
H          4.80611        2.01612        6.67900
H          3.86444        0.59618        7.13903
H         -0.99554        4.87325       -5.91777
H          0.75451        4.78141       -5.74621
H         -0.08517        3.65777       -6.81737
H         -6.82074       -2.11977       -1.39061
H         -7.01958       -1.05124       -0.00457
H         -7.17732       -0.40939       -1.64053
