111
-148.55595228
P         -2.27504        2.21851        1.03730
P          0.05760        0.13987        0.50996
C         -1.27580        1.62196        2.42266
C         -0.27378        0.70670        2.18846
C         -2.48683        4.05431        1.08577
C         -1.62926        4.72316        0.03341
C         -1.51856        2.06691        3.70608
H         -2.30745        2.78025        3.88167
C         -0.75175        1.59003        4.75535
H         -0.93965        1.93602        5.75862
C          0.25171        0.66982        4.51855
H          0.84810        0.29810        5.33542
C          0.49102        0.22560        3.23020
H          1.27141       -0.49114        3.02665
Pd        -1.36283        1.33398       -0.88498
Cl        -3.04544        2.31030       -2.00233
Cl        -0.38635        0.34929       -2.64556
C         -4.00348        4.23002        0.88364
C         -4.04358        1.67999        1.13571
H         -0.56979        4.50199        0.18516
H         -1.89742        4.37088       -0.96437
H         -1.75543        5.80835        0.04557
H         -4.20167        4.36687       -0.18843
H         -4.35090        5.15486        1.36885
H         -4.29445        1.28738        0.14127
C         -4.79751        2.99693        1.40124
C         -4.23969        0.61924        2.19822
H         -2.19229        4.37717        2.09270
H         -4.96422        3.09750        2.48244
H         -5.80117        2.95994        0.95124
H         -5.27482        0.27122        2.23037
H         -3.59420       -0.24381        2.02133
H         -3.99246        1.01010        3.18665
C         -1.19795       -4.21379        0.03397
C         -2.13790       -3.16964       -0.17371
C         -1.72013       -1.86443        0.02644
C         -0.41198       -1.57533        0.31678
C          0.52444       -2.57183        0.40613
C          0.17341       -3.90037        0.22938
O         -1.63916       -5.55982        0.11315
C         -3.58138       -3.39876       -0.65518
H         -2.42221       -1.05209       -0.05258
H          1.54401       -2.29931        0.61912
C          1.29653       -4.95170        0.23161
C          4.34151        1.08164       -0.73479
C          3.72416        1.81851        0.30773
C          2.43349        1.47692        0.67639
C          1.74252        0.49479        0.01479
C          2.29767       -0.14677       -1.06125
C          3.58194        0.14935       -1.48673
O          5.72271        1.25816       -1.01643
C          4.43284        2.96309        1.04930
H          1.94516        1.97745        1.49449
H          1.69896       -0.87424       -1.58100
C          4.13221       -0.52328       -2.75486
C         -3.91794       -2.38273       -1.77078
C         -3.77692       -4.80312       -1.25242
C         -4.55662       -3.19679        0.51541
C          0.84932       -6.28313       -0.39674
C          2.48717       -4.43597       -0.60679
C          1.76874       -5.19462        1.67421
C         -2.01202       -5.94319        1.42606
H         -4.89896       -2.58634       -2.19901
H         -3.93547       -1.36019       -1.39748
H         -3.18288       -2.43509       -2.57338
H         -3.05015       -4.98894       -2.04245
H         -3.65135       -5.57392       -0.49560
H         -4.77522       -4.91526       -1.67471
H         -4.46550       -2.19318        0.92795
H         -5.58781       -3.33230        0.19023
H         -4.36299       -3.90531        1.31815
H          0.44726       -6.12020       -1.39608
H          1.68286       -6.98078       -0.47452
H          0.07590       -6.76056        0.20032
H          2.95397       -3.56552       -0.14927
H          3.25643       -5.20185       -0.70263
H          2.16079       -4.15971       -1.60910
H          2.12201       -4.26928        2.12835
H          0.96193       -5.58142        2.29342
H          2.58602       -5.91495        1.70007
H         -2.35936       -6.97649        1.41358
H         -1.15883       -5.85889        2.09678
H         -2.81008       -5.29954        1.79161
C          6.58331        0.40608       -0.27138
C          5.41947        3.69878        0.12438
C          3.40854        4.01338        1.53754
C          5.17140        2.39530        2.27083
C          2.98120       -0.93188       -3.70231
C          5.03728        0.44697       -3.53565
C          4.91843       -1.78569       -2.37260
H          5.87199        4.55034        0.63187
H          6.22438        3.04418       -0.19983
H          4.90934        4.06599       -0.76551
H          2.77574        4.34866        0.71614
H          2.76847        3.61815        2.32499
H          3.91565        4.88668        1.94719
H          4.47249        1.90958        2.95151
H          5.91181        1.65569        1.97584
H          5.68355        3.18516        2.81970
H          2.38318       -1.73976       -3.28310
H          2.32362       -0.08614       -3.90177
H          3.37156       -1.28475       -4.65651
H          4.49819        1.36179       -3.77951
H          5.91559        0.72140       -2.95607
H          5.38276       -0.00204       -4.46646
H          4.28236       -2.48764       -1.83572
H          5.76306       -1.54667       -1.73183
H          5.30235       -2.28945       -3.25936
H          7.21781        1.00419        0.38209
H          6.00057       -0.29401        0.32861
H          7.22752       -0.14655       -0.95520
