111
-148.55056925
P         -2.06225        2.54830        0.86883
P         -0.25034       -0.03707        0.55074
C         -1.34343        1.76645        2.33498
C         -0.55730        0.64418        2.19399
C         -1.67520        4.35860        0.88172
C         -1.01069        4.78340       -0.40948
C         -1.52440        2.33015        3.58186
H         -2.11790        3.22435        3.68067
C         -0.92249        1.76027        4.69030
H         -1.06588        2.19808        5.66467
C         -0.12419        0.64226        4.54563
H          0.35804        0.20715        5.40549
C          0.06832        0.09015        3.29197
H          0.72432       -0.75593        3.15861
Pd        -1.35918        1.33771       -0.96643
Cl        -2.67817        2.64831       -2.22214
Cl        -0.43181        0.18654       -2.65588
C         -3.05293        5.00993        1.12102
C         -3.91309        2.60799        0.85673
H         -0.10190        4.20776       -0.59703
H         -1.67981        4.62304       -1.25626
H         -0.74465        5.84301       -0.39555
H         -3.08675        5.98965        0.62246
H         -3.18806        5.21876        2.19240
H         -4.23230        2.00408       -0.00402
C         -4.21319        4.10297        0.62351
C         -4.50300        2.05097        2.13455
H         -1.00136        4.52849        1.73270
H         -5.15653        4.37100        1.12117
H         -4.38100        4.28553       -0.44817
H         -5.59499        2.04177        2.10032
H         -4.16145        1.02933        2.31713
H         -4.20885        2.65641        2.99294
C         -0.93210       -4.53875        0.20183
C         -1.11710       -3.90733        1.45818
C         -0.91346       -2.54009        1.54324
C         -0.60847       -1.79561        0.43237
C         -0.55551       -2.38952       -0.80173
C         -0.74581       -3.75036       -0.96120
O         -0.89571       -5.95606        0.11684
C         -1.49063       -4.69128        2.72618
H         -0.98716       -2.03867        2.49044
H         -0.36068       -1.76187       -1.65240
C         -0.71382       -4.34627       -2.37739
C          3.97006        1.07690       -0.73004
C          3.55184       -0.27453       -0.83870
C          2.26337       -0.59473       -0.44784
C          1.43465        0.35091        0.09426
C          1.86606        1.63608        0.29613
C          3.14468        2.02342       -0.06938
O          5.19656        1.49369       -1.31250
C          4.44689       -1.38397       -1.41263
H          1.88280       -1.59171       -0.57810
H          1.17851        2.33735        0.73763
C          3.60655        3.45855        0.22753
C         -0.20857       -5.16449        3.42770
C         -2.28783       -3.80031        3.70591
C         -2.38509       -5.89762        2.38697
C          0.73557       -4.69480       -2.74905
C         -1.60430       -5.59817       -2.47506
C         -1.25519       -3.32870       -3.40788
C          0.40727       -6.50951        0.25319
H          0.37452       -5.81833        2.78370
H          0.42019       -4.31549        3.69511
H         -0.44228       -5.71250        4.34013
H         -1.66978       -3.00754        4.12489
H         -3.14203       -3.34332        3.20697
H         -2.66440       -4.38738        4.54327
H         -3.27592       -5.57549        1.84880
H         -1.86040       -6.61710        1.76312
H         -2.70350       -6.41611        3.29099
H          1.36111       -3.80282       -2.73442
H          1.16186       -5.40968       -2.04912
H          0.78948       -5.12696       -3.74789
H         -1.23875       -6.39693       -1.83485
H         -2.62467       -5.36737       -2.17083
H         -1.63257       -5.98060       -3.49506
H         -0.58771       -2.47634       -3.52401
H         -1.35762       -3.78953       -4.38999
H         -2.23477       -2.95746       -3.10823
H          0.67570       -7.04568       -0.65683
H          1.13822       -5.72157        0.43951
H          0.41724       -7.21813        1.08126
C          5.08072        1.91264       -2.66658
C          4.20611       -1.49189       -2.92624
C          5.93395       -1.10758       -1.12678
C          4.11185       -2.74591       -0.76134
C          5.11358        3.49656        0.53918
C          3.29300        4.35803       -0.97757
C          2.87347        4.02362        1.46594
H          3.16086       -1.71963       -3.13421
H          4.44579       -0.55902       -3.43098
H          4.81771       -2.28003       -3.36458
H          6.55963       -1.92707       -1.47960
H          6.27243       -0.20033       -1.62025
H          6.10282       -0.98797       -0.05714
H          4.82379       -3.50953       -1.07381
H          4.15164       -2.67567        0.32532
H          3.12180       -3.09876       -1.04511
H          5.35063        2.83157        1.36899
H          5.70333        3.18259       -0.31870
H          5.43290        4.50297        0.80865
H          3.58055        5.39025       -0.77937
H          3.82477        4.02737       -1.86597
H          2.22786        4.34179       -1.20496
H          3.29206        4.98665        1.75734
H          2.96784        3.34709        2.31500
H          1.81418        4.18254        1.26997
H          5.66465        1.25271       -3.30764
H          4.03660        1.89455       -2.98180
H          5.47614        2.92307       -2.76980
