59
-75.81295344
Cl         1.62268        0.51404        2.32425
P          1.60086       -0.04463       -0.86645
P         -1.63571       -0.05361       -0.79862
C          0.57835        0.40038       -2.33537
H          0.32306        1.46164       -2.28406
H          1.17754        0.24705       -3.23831
C         -0.66006       -0.44915       -2.31665
H         -0.39957       -1.51052       -2.29500
H         -1.29549       -0.28196       -3.19226
C          2.50272       -1.61937       -1.26606
H          2.31139       -1.77271       -2.33681
C          3.05825        1.07445       -0.61705
H          3.17710        1.17405        0.46880
C         -2.95713       -1.31317       -0.48633
H         -3.31770       -1.12521        0.53268
C         -2.76639        1.36293       -1.20862
H         -2.29511        1.91291       -2.03233
C          3.98560       -1.26164       -1.06187
H          4.30646       -1.58440       -0.06422
H          4.61552       -1.82579       -1.76617
C          4.22690        0.26428       -1.20405
H          4.33734        0.52198       -2.26648
H          5.17466        0.55981       -0.72854
C         -4.02181       -0.88435       -1.50907
H         -3.78067       -1.35284       -2.47445
H         -5.00847       -1.28485       -1.22819
C         -4.07027        0.66372       -1.67239
H         -4.90819        1.06188       -1.08351
H         -4.30086        0.93263       -2.71388
C          2.00850       -2.83133       -0.47806
H          2.50520       -3.73335       -0.86188
H          0.94345       -2.97749       -0.70019
C          2.88141        2.45123       -1.24606
H          3.84524        2.97894       -1.22937
H          2.63937        2.32825       -2.30963
C         -2.49537       -2.76110       -0.61162
H         -3.37730       -3.41252       -0.68488
H         -1.96649       -2.88924       -1.56395
C         -2.99504        2.29148       -0.01769
H         -3.85359        2.94209       -0.23625
H         -3.30369        1.68537        0.84436
C          2.21437       -2.74433        1.02821
H          1.80656       -1.82031        1.43605
H          3.27102       -2.77078        1.29760
H          1.73251       -3.57222        1.55364
C          1.82114        3.28793       -0.55019
H          0.85134        2.79277       -0.57927
H          1.70277        4.27106       -1.01139
H          2.06804        3.44373        0.50172
C         -1.62402       -3.20433        0.55291
H         -0.75062       -2.56189        0.66047
H         -1.26823       -4.23040        0.43524
H         -2.17036       -3.15141        1.49654
C         -1.79253        3.14776        0.34342
H         -2.01502        3.84136        1.15754
H         -0.95178        2.53653        0.66804
H         -1.45805        3.74003       -0.51035
Cl        -1.60592        0.13601        2.37716
Pd         0.01298        0.08429        0.82219
