111
-148.55395089
P         -1.63133        2.78636        0.47120
P         -0.55720       -0.19954        0.40715
C         -1.64481        1.78135        1.98427
C         -1.24624        0.46180        1.93759
C         -0.38737        4.14611        0.62340
C          0.71488        3.97595       -0.40044
C         -2.02049        2.34148        3.18863
H         -2.29017        3.38399        3.22925
C         -2.02369        1.56994        4.33789
H         -2.32170        2.00672        5.27707
C         -1.63967        0.24384        4.28423
H         -1.63699       -0.35533        5.17986
C         -1.23908       -0.30896        3.08132
H         -0.90269       -1.33224        3.02818
Pd        -1.36316        1.23469       -1.22103
Cl        -2.52246        2.54771       -2.61401
Cl        -0.88474       -0.40097       -2.69208
C         -1.22678        5.42720        0.44102
C         -3.17392        3.78631        0.24742
H          1.24595        3.03194       -0.26244
H          0.30376        3.97284       -1.41207
H          1.44508        4.78641       -0.33991
H         -1.10419        5.78280       -0.59116
H         -0.83518        6.23515        1.07721
H         -3.36228        3.80737       -0.83368
C         -2.73712        5.18354        0.72268
C         -4.36599        3.19981        0.97304
H          0.00776        4.08225        1.64567
H         -2.93253        5.27142        1.80012
H         -3.35630        5.95984        0.24746
H         -5.26761        3.79166        0.79981
H         -4.56400        2.17708        0.64429
H         -4.19804        3.16995        2.04977
C         -0.77471       -4.72509       -0.02963
C          0.22234       -4.13645        0.79310
C          0.26072       -2.75486        0.88746
C         -0.68837       -1.97712        0.27679
C         -1.72829       -2.54649       -0.40932
C         -1.82258       -3.92124       -0.55243
O         -0.67845       -6.09287       -0.39336
C          1.26017       -4.93917        1.59577
H          1.05124       -2.26563        1.43210
H         -2.45918       -1.89759       -0.86159
C         -3.05548       -4.48425       -1.27931
C          3.73920        1.26535        0.04212
C          3.05826        1.38996        1.28035
C          1.75350        0.93387        1.36077
C          1.15575        0.31377        0.29567
C          1.83981        0.10790       -0.87193
C          3.14841        0.53344       -1.01948
O          4.99264        1.90619       -0.14699
C          3.69587        2.04630        2.51451
H          1.17644        1.07627        2.25717
H          1.31265       -0.35520       -1.68764
C          3.87835        0.23884       -2.33837
C          1.32995       -4.38804        3.03746
C          0.89367       -6.42963        1.70317
C          2.64119       -4.79409        0.93488
C         -3.23229       -5.99554       -1.05115
C         -4.32944       -3.79614       -0.74100
C         -2.93023       -4.20139       -2.78580
C          0.09107       -6.29657       -1.56695
H          2.00328       -4.98705        3.65008
H          1.69538       -3.36279        3.06246
H          0.34532       -4.40651        3.50387
H         -0.11139       -6.54998        2.10595
H          0.92303       -6.91465        0.73047
H          1.58758       -6.95882        2.35587
H          2.94108       -3.74774        0.88429
H          3.40128       -5.33410        1.49887
H          2.63529       -5.18630       -0.08020
H         -2.41750       -6.56012       -1.49797
H         -3.25198       -6.22363        0.01395
H         -4.16172       -6.35356       -1.49335
H         -5.22364       -4.23319       -1.18469
H         -4.40045       -3.91062        0.34027
H         -4.34257       -2.73184       -0.96944
H         -3.80556       -4.56316       -3.32451
H         -2.83729       -3.13233       -2.97465
H         -2.05270       -4.68851       -3.20617
H          1.10582       -5.93187       -1.41737
H          0.12106       -7.36183       -1.79685
H         -0.35348       -5.75999       -2.40338
C          4.89731        3.23051       -0.65734
C          5.21290        1.78856        2.55723
C          3.41427        3.55636        2.49047
C          3.10168        1.45682        3.81429
C          3.60578        1.37809       -3.33246
C          5.39241        0.07689       -2.11346
C          3.37126       -1.08545       -2.95477
H          5.65487        2.19911        3.46475
H          5.42113        0.71946        2.53196
H          5.71733        2.24638        1.71003
H          2.34186        3.74809        2.50348
H          3.85502        4.04954        3.35643
H          3.82214        4.02023        1.59575
H          2.05736        1.73729        3.94421
H          3.16783        0.36909        3.81234
H          3.64141        1.82339        4.68716
H          4.09910        1.19104       -4.28584
H          2.53669        1.47794       -3.51923
H          3.96429        2.33053       -2.94945
H          5.84111        0.99749       -1.74933
H          5.58952       -0.70341       -1.37911
H          5.89943       -0.19271       -3.03960
H          3.42737       -1.89695       -2.22960
H          3.97346       -1.36570       -3.81865
H          2.34098       -1.00309       -3.29749
H          3.85321        3.50839       -0.80459
H          5.36351        3.92572        0.04061
H          5.42747        3.29628       -1.60728
