64
-97.21236192
Cl        -1.56622       -1.58483       -2.47560
Cl         1.58233       -1.39387       -2.92606
P          1.95990       -0.61336        0.26225
C          2.19967       -2.26517        1.06350
C          3.73090       -0.17991       -0.08787
P         -1.28244       -0.13148        0.41484
C          1.27437        0.63629        1.40848
C         -0.15753        0.86495        1.46838
C         -0.38350        2.00031        2.35106
C          0.91767        2.46077        2.80588
C          1.94586        1.56395        2.30743
H         -1.34448        2.46504        2.57642
H          1.08741        3.29717        3.48742
Pd         0.19539       -0.98093       -1.21843
H          3.02161        1.64083        2.47310
C         -4.88989        2.38782       -0.77170
C         -4.51627        2.28577        0.55376
C         -3.42958        1.50505        0.90568
C         -2.71938        0.83854       -0.06709
C         -3.10776        0.91811       -1.38514
C         -4.18981        1.69974       -1.74251
H         -5.73541        2.99680       -1.04745
H         -5.07030        2.81179        1.31384
H         -3.14172        1.39921        1.93903
H         -2.57879        0.34322       -2.12593
H         -4.49043        1.76411       -2.77543
C         -2.70733       -3.85380        2.59281
C         -2.34978       -2.72971        3.31206
C         -1.92120       -1.59416        2.64795
C         -1.85163       -1.59489        1.27398
C         -2.21120       -2.70939        0.55364
C         -2.64033       -3.84580        1.21314
H         -3.04139       -4.73879        3.10949
H         -2.40347       -2.73627        4.38835
H         -1.63491       -0.70859        3.19291
H         -2.15281       -2.67863       -0.52233
H         -2.92173       -4.72125        0.65130
C          4.05517       -0.24417       -1.56379
H          3.89005        0.83646        0.29573
C          4.50960       -1.21513        0.74769
H          4.72941       -0.80388        1.74384
C          3.70818       -2.53537        0.90134
H          5.48745       -1.40624        0.28205
C          1.74284       -2.21873        2.50535
H          1.60246       -2.98892        0.49195
H          4.07357       -3.11334        1.76241
H          3.88256       -3.17178        0.02158
H          0.68714       -1.95048        2.57872
H          1.88162       -3.18176        3.00237
H          2.30993       -1.47095        3.06332
H          3.44764        0.45396       -2.14196
H          5.10529       -0.01167       -1.75396
H          3.86280       -1.24522       -1.95312
Fe         0.81142        2.35768        0.73703
C          2.11490        3.12773       -0.63307
C          1.37057        4.21676       -0.02391
C         -0.04287        3.99611       -0.27096
C         -0.16871        2.74709       -0.99851
C          1.16100        2.22267       -1.24536
H          3.20269        3.03067       -0.66068
H          1.80236        5.07270        0.49899
H         -0.86413        4.63980        0.05010
H         -1.10334        2.30623       -1.34687
H          1.39732        1.33134       -1.83043
