105
-153.06841893
Cl         0.44545        2.01629        3.09558
Pd        -0.30539        1.50114        1.03269
P         -1.17609        0.75153       -0.98721
N         -0.18297       -0.35992       -1.91174
C          0.33170       -1.62727       -1.68044
C          0.23827       -2.31041       -0.44269
C          0.91935       -3.53385       -0.27345
C          0.82261       -4.23817        1.05840
C          1.88617       -5.32654        1.26962
C          2.00188       -6.22300        0.03328
C          2.38412       -5.39962       -1.20660
C          1.63786       -4.09441       -1.33164
C          1.67676       -3.42943       -2.54974
C          1.04273       -2.22643       -2.72019
H          1.11329       -1.71082       -3.66220
H          2.23509       -3.86252       -3.36243
H          3.45910       -5.18439       -1.18946
H          2.72658       -7.03147        0.20510
H          2.85632       -4.85305        1.46596
H          0.89131       -3.49113        1.85867
C         -0.70726       -1.88752        0.61876
C         -0.22829       -1.26647        1.80496
C         -1.12173       -1.08133        2.86459
C         -2.43022       -1.47787        2.76351
C         -2.90870       -2.11110        1.62254
C         -4.34420       -2.58270        1.62271
C         -4.80823       -3.26469        0.32320
C         -3.67619       -4.06198       -0.33086
C         -2.48326       -3.14633       -0.63849
C         -2.03909       -2.33611        0.55394
H         -1.64024       -3.74097       -1.01107
H         -4.02757       -4.56885       -1.24081
H         -5.16031       -2.50453       -0.38314
H         -4.99065       -1.72583        1.85089
H         -3.10491       -1.31137        3.58615
H         -0.77377       -0.58634        3.75406
N          1.08884       -0.80537        1.93080
P          1.71311        0.24825        0.65470
C          2.91031       -0.65498       -0.32975
C          3.27999       -0.22647       -1.58192
C          4.23910       -0.93018       -2.28728
C          4.84629       -2.05005       -1.73352
C          4.47154       -2.45382       -0.45934
C          3.50861       -1.75138        0.24206
H          3.20684       -2.05770        1.23103
H          4.93159       -3.32382       -0.02306
C          5.84553       -2.83290       -2.51147
H          4.51970       -0.61490       -3.27771
H          2.81653        0.64965       -2.00390
C          2.67450        1.61198        1.32362
C          3.48170        1.41324        2.41711
C          4.22949        2.46457        2.91583
C          4.17149        3.71807        2.32105
C          3.36638        3.89074        1.20305
C          2.62026        2.83880        0.70450
H          1.99228        2.97074       -0.16253
H          3.32590        4.85497        0.72585
C          4.99031        4.84531        2.84652
H          4.86344        2.31714        3.77342
H          3.52654        0.43811        2.87490
H          1.29905       -0.32848        2.79833
H         -0.19801       -0.03752       -2.87170
C         -0.99331        2.34574       -1.79477
C         -2.03890        3.23639       -1.84693
C         -1.85206        4.47983       -2.42237
C         -0.61402        4.84306       -2.93618
C          0.42867        3.92804       -2.87664
C          0.23830        2.68416       -2.30289
H          1.04591        1.97319       -2.24499
H          1.39020        4.19588       -3.28025
C         -0.41892        6.17542       -3.57209
H         -2.66821        5.18034       -2.47002
H         -2.99255        2.96034       -1.42708
C         -2.89399        0.27945       -1.20583
C         -3.26000       -0.28496       -2.40499
C         -4.58420       -0.61163       -2.63893
C         -5.55200       -0.36823       -1.67412
C         -5.16719        0.22339       -0.47884
C         -3.84369        0.54572       -0.24903
H         -3.55001        1.03640        0.66255
H         -5.91241        0.43722        0.26818
C         -6.98017       -0.70118       -1.93223
H         -4.87395       -1.05625       -3.57561
H         -2.50690       -0.46921       -3.15436
Cl        -2.23819        2.54022        1.50724
H          2.21942       -5.98879       -2.11786
H          1.66307       -5.92358        2.16513
H          1.04062       -6.72211       -0.14296
H         -0.17873       -4.67513        1.15048
H         -3.35450       -4.86136        0.34844
H         -2.73921       -2.46425       -1.45483
H         -4.47426       -3.27522        2.46310
H         -5.67805       -3.90971        0.51131
H          6.40455       -2.19081       -3.19355
H          6.56452       -3.32025       -1.85148
H          5.35409       -3.60636       -3.10343
H          5.97083        4.86768        2.36900
H          4.50373        5.80414        2.66234
H          5.14156        4.75333        3.92293
H         -1.05377        6.93032       -3.10608
H          0.61525        6.50952       -3.47737
H         -0.66466        6.13755       -4.63421
H         -7.48173        0.11866       -2.44814
H         -7.06953       -1.59450       -2.55210
H         -7.51564       -0.89042       -1.00073
