171
-217.84024497
P         -1.69991        0.67610        0.18812
P          1.51254       -0.22715       -0.22103
C         -0.86316        1.85604       -0.89409
C          0.71253       -0.80691       -1.72669
C         -0.14988        1.50271       -2.03374
C          0.54894        2.50551       -2.73213
C          0.49005        3.81383       -2.28261
C         -0.22376        4.14608       -1.15158
C         -0.89234        3.15866       -0.45417
C          0.87785       -2.10561       -2.14012
C          0.26146       -2.55147       -3.29244
C         -0.52619       -1.68750       -4.02465
C         -0.71239       -0.37453       -3.62275
C         -0.05870        0.08348       -2.46271
Cl         1.97315        0.88978        2.82223
Cl        -1.06965        0.30386        3.48296
C         -1.57566        0.53496       -4.42525
C          1.37140        2.19220       -3.93308
H         -0.25212        5.16668       -0.80644
H         -1.43445        3.39893        0.44865
H          1.49806       -2.77103       -1.56485
H          0.39299       -3.57117       -3.61575
H          1.02475        4.57528       -2.82509
H         -0.99931       -2.02945       -4.92924
C         -2.86490       -3.43735       -1.31976
C         -1.90093       -3.35340       -0.32194
C         -1.52356       -2.08809        0.10887
C         -2.09798       -0.96309       -0.43624
C         -3.06465       -1.06774       -1.40593
C         -3.47094       -2.31389       -1.86732
H         -3.17166       -4.40331       -1.67397
H         -0.78545       -1.98301        0.88402
H         -3.50997       -0.16637       -1.78920
C         -5.60886        2.60329        1.43025
C         -4.84772        1.97164        2.40638
C         -3.64733        1.39196        2.01896
C         -3.23571        1.44421        0.71220
C         -3.99965        2.07291       -0.24010
C         -5.20611        2.67002        0.10144
H         -6.53716        3.05735        1.72183
H         -3.00735        0.91107        2.73545
H         -3.64360        2.10973       -1.25655
C          3.76826       -3.73241        1.62334
C          2.76267       -3.13908        2.37478
C          2.06707       -2.07874        1.81043
C          2.38459       -1.61067        0.55701
C          3.40070       -2.19819       -0.15650
C          4.10431       -3.28047        0.35384
H          4.30238       -4.56205        2.04682
H          1.27810       -1.60752        2.36506
H          3.64544       -1.81762       -1.13245
C          4.53408        2.94490       -1.36983
C          3.69357        3.18647       -0.29064
C          2.78902        2.19406        0.06164
C          2.71782        1.02705       -0.65581
C          3.53662        0.81686       -1.73848
C          4.47370        1.77278       -2.11313
H          5.26542        3.68748       -1.63032
H          2.13787        2.32039        0.90731
H          3.42268       -0.09048       -2.30521
Pd         0.14233        0.44942        1.58912
C          0.21318       -4.64806        0.10050
C         -1.30322       -4.59965        0.35024
C         -1.92495       -5.89900       -0.19724
C         -1.57868       -4.53143        1.86395
H          0.42510       -4.71842       -0.96570
H          0.70129       -3.75543        0.48544
H          0.66419       -5.51168        0.58857
H         -1.50056       -6.77000        0.30208
H         -3.00237       -5.91758       -0.03401
H         -1.73317       -6.00668       -1.26469
H         -1.10361       -3.66077        2.31293
H         -2.64909       -4.46347        2.05689
H         -1.20100       -5.41880        2.37111
C         -4.00985       -3.15025       -4.17156
C         -4.58410       -2.47809       -2.91259
C         -5.19223       -1.11967       -3.31204
C         -5.70829       -3.35278       -2.32542
H         -3.58035       -4.12414       -3.93939
H         -4.78483       -3.29628       -4.92381
H         -3.22703       -2.53498       -4.61192
H         -4.44172       -0.46566       -3.75404
H         -5.98702       -1.25148       -4.04608
H         -5.62212       -0.61720       -2.44598
H         -5.34980       -4.35226       -2.08265
H         -6.10423       -2.90777       -1.41271
H         -6.53020       -3.45815       -3.03339
C         -6.69852        1.21870        3.92231
C         -5.33916        1.93914        3.86079
C         -5.49016        3.38119        4.37878
C         -4.35010        1.19306        4.77832
H         -7.45013        1.73870        3.32955
H         -6.61277        0.20271        3.53731
H         -7.06375        1.16166        4.94757
H         -4.54000        3.91180        4.32031
H         -6.22101        3.93823        3.79375
H         -5.81854        3.39007        5.41795
H         -4.71231        1.17630        5.80605
H         -4.22004        0.15977        4.45747
H         -3.37423        1.67806        4.78095
C         -5.19002        4.53937       -1.56594
C         -6.02480        3.38344       -0.98374
C         -7.33780        3.96103       -0.42148
C         -6.37142        2.38207       -2.10128
H         -4.91731        5.24855       -0.78465
H         -4.26980        4.17328       -2.02010
H         -5.74873        5.07763       -2.33136
H         -7.90872        4.45776       -1.20592
H         -7.96568        3.17364       -0.00482
H         -7.14105        4.69670        0.35816
H         -5.47190        1.99078       -2.57496
H         -6.93495        1.53937       -1.70130
H         -6.97523        2.85489       -2.87564
C          3.74116       -3.53541        4.64857
C          2.46449       -3.64419        3.79404
C          2.00729       -5.11198        3.72764
C          1.35796       -2.81297        4.47467
H          4.54378       -4.15092        4.24428
H          4.09351       -2.50462        4.68147
H          3.55482       -3.86151        5.67165
H          1.11257       -5.20860        3.11441
H          2.77893       -5.74781        3.29511
H          1.77738       -5.49452        4.72189
H          1.16973       -3.17331        5.48574
H          1.64370       -1.76365        4.54652
H          0.42029       -2.87659        3.92445
C          6.29355       -2.87381       -0.79692
C          5.20700       -3.92371       -0.49814
C          4.59477       -4.42685       -1.81929
C          5.86226       -5.11700        0.22287
H          7.09951       -3.30378       -1.39131
H          5.88596       -2.02877       -1.35025
H          6.72288       -2.49037        0.12844
H          4.16874       -3.60720       -2.39689
H          5.34836       -4.91320       -2.43839
H          3.80002       -5.14706       -1.62530
H          6.63845       -5.56471       -0.39768
H          6.32759       -4.80346        1.15716
H          5.12873       -5.89220        0.44396
C          2.73064        4.59167        1.59878
C          3.78967        4.50941        0.48109
C          3.56194        5.68303       -0.48942
C          5.18554        4.62301        1.11923
H          2.79684        5.54336        2.12560
H          1.72336        4.50903        1.19103
H          2.87173        3.79886        2.33304
H          3.60608        6.63725        0.03524
H          4.31544        5.70030       -1.27584
H          2.58446        5.60447       -0.96427
H          5.27982        5.54652        1.69019
H          5.36760        3.78757        1.79500
H          5.96828        4.61709        0.36155
C          5.08992        0.28329       -4.08217
C          5.46786        1.53083       -3.25861
C          6.86897        1.32015       -2.65801
C          5.49152        2.74426       -4.20831
H          5.77717        0.14855       -4.91730
H          5.13459       -0.62021       -3.47472
H          4.08409        0.37475       -4.49161
H          7.18920        2.19654       -2.09524
H          6.87261        0.46790       -1.97870
H          7.60584        1.13371       -3.43906
H          4.50282        2.93170       -4.62489
H          5.81767        3.64827       -3.69617
H          6.17631        2.57264       -5.03870
H         -2.04233        1.29284       -3.79386
H          0.89692        2.56804       -4.84063
H         -2.37377       -0.01735       -4.92313
H         -0.99537        1.04593       -5.19440
H          1.52263        1.11840       -4.04884
H          2.35529        2.65516       -3.85334
