58
-89.86729187
P          1.51705        0.31342        0.82643
C          1.56745        2.01073        0.24304
C          1.73652        2.21849       -1.10664
C          1.77126        3.50655       -1.60762
C          1.64176        4.57922       -0.74769
C          1.48373        4.36665        0.60794
C          1.44863        3.07659        1.10571
H          1.32825        2.89975        2.16192
H          1.84110        1.36402       -1.75697
C          3.15481       -0.41917        0.79300
C          4.25486        0.40649        0.84677
C          5.52631       -0.13848        0.82582
C          5.68559       -1.50816        0.75172
C          4.57888       -2.33245        0.69883
C          3.30883       -1.78467        0.72121
H          2.43770       -2.41723        0.66392
H          4.11327        1.47428        0.90043
C          0.84446        0.16049        2.53520
C          0.17210       -1.19289        2.74877
C         -1.31232       -1.21844        2.40856
P         -1.73664       -0.60297        0.72183
C         -3.25191       -1.38166        0.15896
C         -3.31959       -2.75377        0.08193
C         -4.48281       -3.36110       -0.35696
C         -5.57001       -2.58843       -0.71483
C         -5.49711       -1.21162       -0.63690
C         -4.33239       -0.60757       -0.19888
H         -4.25966        0.46607       -0.13683
H         -2.45735       -3.34388        0.35004
C         -1.88130        1.19385        0.64706
C         -1.82648        1.79127       -0.59225
C         -1.89347        3.16798       -0.70226
C         -2.02221        3.94101        0.43352
C         -2.09170        3.33946        1.67402
C         -2.02456        1.96236        1.77975
H         -2.09341        1.49027        2.74531
H         -1.72886        1.17509       -1.47237
Pd         0.11249       -0.75039       -0.67135
Cl         1.89199       -1.06490       -2.01437
Cl        -1.18263       -1.93395       -2.07731
H         -1.70887       -2.23399        2.48128
H         -1.88439       -0.61857        3.11776
H          0.69940       -1.94678        2.14826
H          0.30619       -1.51774        3.79251
H          1.69655        0.30409        3.20463
H          0.14996        0.97818        2.72634
H          1.89846        3.67077       -2.66493
H          1.38411        5.20472        1.27802
H          6.38950        0.50544        0.86467
H          4.70314       -3.40097        0.63481
H         -4.53716       -4.43525       -0.42393
H         -6.34412       -0.60814       -0.91915
H         -1.83837        3.63474       -1.67193
H         -2.19693        3.94286        2.56070
H          1.66594        5.58473       -1.13502
H          6.67535       -1.93444        0.73205
H         -6.47577       -3.06070       -1.05877
H         -2.06844        5.01471        0.35168
