171
-217.83630913
P         -1.68615        0.61991        0.26584
P          1.48372       -0.18506       -0.29616
C         -0.99295        1.74549       -0.96465
C          0.62797       -0.91760       -1.70098
C         -0.34468        1.33287       -2.12290
C          0.24438        2.30835       -2.94932
C          0.13476        3.64595       -2.60870
C         -0.51543        4.03638       -1.45837
C         -1.06819        3.07784       -0.63163
C          0.82111       -2.23725       -2.02907
C          0.16114       -2.78550       -3.11131
C         -0.70564       -2.00818       -3.85090
C         -0.92329       -0.67795       -3.53126
C         -0.21854       -0.11101       -2.45161
Cl         2.18247        1.30572        2.49011
Cl        -0.86666        0.52440        3.50922
C         -1.87788        0.13178       -4.33734
C          0.99816        1.93892       -4.17798
H         -0.58396        5.08033       -1.19950
H         -1.55737        3.36575        0.28731
H          1.48594       -2.84265       -1.43710
H          0.31990       -3.81790       -3.37636
H          0.57709        4.38539       -3.25483
H         -1.22102       -2.43391       -4.69497
C         -2.77405       -3.60967       -0.93570
C         -1.70631       -3.43757       -0.06399
C         -1.36693       -2.13940        0.29964
C         -2.05998       -1.07007       -0.21951
C         -3.11358       -1.26181       -1.07926
C         -3.49811       -2.54363       -1.45141
H         -3.06224       -4.60778       -1.20955
H         -0.55565       -1.95469        0.98031
H         -3.64222       -0.39980       -1.44729
C         -5.60817        2.45569        1.61273
C         -5.26489        2.48729        0.26612
C         -4.05301        1.92073       -0.10651
C         -3.22353        1.35914        0.83306
C         -3.57762        1.34153        2.15757
C         -4.78253        1.88922        2.57621
H         -6.53977        2.88628        1.92842
H         -3.74489        1.92879       -1.13912
H         -2.88951        0.91469        2.86319
C          3.95290       -3.38556        1.83361
C          2.99135       -2.70627        2.56803
C          2.22715       -1.75268        1.91060
C          2.43499       -1.46120        0.58174
C          3.41059       -2.13205       -0.11552
C          4.16996       -3.12748        0.48636
H          4.55601       -4.11919        2.33434
H          1.47241       -1.22223        2.45803
H          3.58877       -1.87524       -1.14428
C          4.32197        2.92239       -1.98279
C          3.51151        3.27302       -0.91025
C          2.66438        2.30319       -0.39112
C          2.62696        1.04364       -0.93316
C          3.41927        0.72156       -2.00850
C          4.29885        1.65233       -2.54726
H          4.98924        3.66340       -2.38083
H          2.02364        2.52500        0.44287
H          3.33575       -0.25697       -2.44924
Pd         0.24639        0.64428        1.56572
C         -1.96292       -5.44618        1.40557
C         -0.98814       -4.67253        0.50013
C          0.24720       -4.28334        1.32864
C         -0.51925       -5.58058       -0.65286
H         -2.83700       -5.78057        0.84766
H         -1.48284       -6.32495        1.83581
H         -2.30959       -4.81555        2.22409
H          0.76170       -5.17151        1.69434
H          0.95606       -3.71881        0.72545
H         -0.03199       -3.68117        2.19235
H          0.00218       -6.45725       -0.26889
H         -1.35661       -5.93127       -1.25428
H          0.16611       -5.04617       -1.30896
C         -5.71457       -3.70178       -1.64362
C         -4.69675       -2.80561       -2.37418
C         -4.21191       -3.50882       -3.65399
C         -5.40496       -1.49524       -2.76938
H         -6.04437       -3.23212       -0.71707
H         -6.59330       -3.87915       -2.26347
H         -5.28399       -4.67049       -1.39325
H         -3.49853       -2.88384       -4.18896
H         -3.72227       -4.45457       -3.42455
H         -5.04544       -3.71698       -4.32457
H         -4.73190       -0.83036       -3.30938
H         -6.25871       -1.69576       -3.41651
H         -5.77416       -0.97208       -1.88765
C         -5.38150        4.28682       -1.47246
C         -6.15352        3.13209       -0.80688
C         -7.45620        3.69491       -0.20695
C         -6.52025        2.07661       -1.86657
H         -5.99114        4.77856       -2.23027
H         -5.09371        5.03378       -0.73288
H         -4.47307        3.92897       -1.95593
H         -8.07571        4.14549       -0.98233
H         -8.04192        2.90735        0.26688
H         -7.24603        4.46492        0.53513
H         -7.16794        2.50180       -2.63305
H         -5.63148        1.68724       -2.36171
H         -7.04481        1.23832       -1.40862
C         -5.39008        3.34563        4.52536
C         -5.21002        1.89200        4.05108
C         -4.15678        1.21332        4.94937
C         -6.53891        1.12810        4.19702
H         -4.46264        3.90575        4.40754
H         -6.16423        3.85616        3.95375
H         -5.67442        3.38051        5.57690
H         -4.00212        0.17495        4.65710
H         -3.20025        1.73257        4.89453
H         -4.47515        1.21879        5.99164
H         -6.85742        1.09493        5.23878
H         -7.33347        1.60074        3.62086
H         -6.43354        0.10263        3.84329
C          2.57847       -4.46051        4.32846
C          2.84513       -2.96530        4.07565
C          1.68264       -2.15454        4.68464
C          4.14915       -2.54649        4.77858
H          1.65506       -4.77644        3.84539
H          3.38772       -5.08065        3.94532
H          2.48256       -4.66250        5.39516
H          1.84881       -1.08319        4.57367
H          0.73450       -2.40679        4.21079
H          1.58353       -2.36131        5.74998
H          4.99720       -3.12496        4.41379
H          4.36041       -1.49268        4.59777
H          4.07882       -2.69744        5.85560
C          6.42216       -2.89557       -0.57033
C          5.24708       -3.85774       -0.32783
C          4.65956       -4.31349       -1.67892
C          5.76840       -5.10564        0.41156
H          6.86334       -2.58018        0.37498
H          7.20110       -3.36961       -1.16722
H          6.09059       -2.00117       -1.09540
H          4.36309       -3.46590       -2.29520
H          5.39029       -4.88991       -2.24601
H          3.78166       -4.94080       -1.52471
H          6.48128       -5.65149       -0.20642
H          6.27994       -4.83435        1.33460
H          4.95081       -5.78399        0.65533
C          5.00446        4.94156        0.21384
C          3.58318        4.68841       -0.32046
C          2.58532        4.87013        0.84087
C          3.24718        5.71721       -1.41529
H          5.08339        5.93323        0.65895
H          5.26404        4.20722        0.97617
H          5.74467        4.87311       -0.58249
H          2.80072        4.17875        1.65527
H          2.64031        5.88111        1.24402
H          1.56129        4.70281        0.50813
H          3.28005        6.73219       -1.01968
H          3.95145        5.65982       -2.24428
H          2.24781        5.54323       -1.81225
C          6.07056        0.03550       -3.27360
C          5.21769        1.24180       -3.70877
C          6.16508        2.38600       -4.11750
C          4.36882        0.85047       -4.93191
H          6.64549        0.27293       -2.37873
H          5.44507       -0.82864       -3.05410
H          6.76983       -0.25268       -4.05832
H          5.60509        3.25618       -4.45954
H          6.79867        2.68702       -3.28338
H          6.81835        2.07440       -4.93247
H          3.68279        0.03809       -4.69476
H          3.78197        1.69807       -5.28318
H          5.00270        0.52089       -5.75498
H         -2.72388       -0.47256       -4.66729
H          0.41097        2.14457       -5.07399
H         -1.39230        0.53709       -5.22585
H         -2.27576        0.96620       -3.75760
H          1.26498        0.88146       -4.18135
H          1.92273        2.51379       -4.24466
