111
-148.55464638
P         -2.58490        2.01005        0.17856
P          0.13358        0.42941        0.48755
C         -1.78495        1.90846        1.80347
C         -0.57516        1.25931        1.92250
C         -3.41639        3.64455       -0.07364
C         -2.61435        4.54481       -0.98778
C         -2.37805        2.46657        2.91794
H         -3.33408        2.95505        2.82532
C         -1.74975        2.38026        4.14846
H         -2.21187        2.81626        5.01906
C         -0.53411        1.73346        4.26334
H         -0.04692        1.66376        5.22197
C          0.05274        1.16561        3.14691
H          0.99206        0.64016        3.22192
Pd        -1.00880        1.27020       -1.34053
Cl        -2.41352        1.94892       -2.95324
Cl         0.60300        0.49568       -2.69987
C         -4.80055        3.24012       -0.61354
C         -4.02977        0.86974       -0.02072
H         -3.10800        5.50859       -1.13254
H         -1.61611        4.73131       -0.58469
H         -2.48971        4.08916       -1.97077
H         -4.75983        3.22669       -1.71149
H         -5.55190        4.00157       -0.35433
H         -3.88666        0.36538       -0.98584
C         -5.22683        1.83649       -0.09499
C         -4.10012       -0.13806        1.10610
H         -3.51571        4.09949        0.91999
H         -5.66457        1.93464        0.90793
H         -6.02363        1.41121       -0.72393
H         -4.17411        0.36504        2.07197
H         -4.96895       -0.79244        1.00390
H         -3.20676       -0.76520        1.13100
C         -1.43318       -3.84595        0.34772
C         -0.85621       -3.26443       -0.80990
C         -0.39917       -1.96181       -0.72615
C         -0.41806       -1.27593        0.45904
C         -0.86758       -1.87404        1.60682
C         -1.35117       -3.17175        1.59326
O         -2.13298       -5.07802        0.25199
C         -0.75667       -3.99797       -2.15581
H         -0.04181       -1.44665       -1.60050
H         -0.85806       -1.30056        2.51681
C         -1.81861       -3.81051        2.91026
C          4.64928        0.83890        0.05077
C          4.01088       -0.38252       -0.29022
C          2.63675       -0.46387       -0.14435
C          1.91305        0.57497        0.37926
C          2.53863        1.71360        0.81587
C          3.91314        1.85818        0.71257
O          5.99336        1.07012       -0.33945
C          4.74837       -1.62405       -0.81919
H          2.10975       -1.34715       -0.46057
H          1.93577        2.50040        1.23714
C          4.55472        3.10802        1.33930
C         -2.00252       -3.68113       -2.99688
C          0.49704       -3.53458       -2.93325
C         -0.62071       -5.51801       -1.95526
C         -1.58991       -5.33290        2.89867
C         -1.01956       -3.24351        4.10564
C         -3.30773       -3.50073        3.12679
C         -3.51257       -4.93323       -0.06208
H         -1.95745       -4.17924       -3.96493
H         -2.91058       -4.00475       -2.49339
H         -2.08559       -2.60873       -3.17256
H          0.64013       -4.13607       -3.83054
H          0.41464       -2.49748       -3.25443
H          1.39120       -3.63317       -2.31857
H          0.23806       -5.74606       -1.32474
H         -1.50358       -5.93685       -1.47931
H         -0.48687       -6.02859       -2.90860
H         -2.18857       -5.81794        2.13162
H         -0.54340       -5.56219        2.70058
H         -1.85937       -5.77717        3.85653
H         -1.25169       -2.19472        4.28507
H         -1.25767       -3.78438        5.02128
H          0.05256       -3.33370        3.93284
H         -3.47406       -2.42518        3.18065
H         -3.91404       -3.88939        2.31216
H         -3.66744       -3.94372        4.05512
H         -4.11480       -5.40503        0.71425
H         -3.77725       -3.87763       -0.13671
H         -3.72787       -5.42863       -1.00860
C          6.09758        1.66319       -1.62317
C          6.26626       -1.54924       -0.58039
C          4.23683       -2.88126       -0.08041
C          4.46923       -1.77818       -2.32366
C          4.23774        4.33707        0.47162
C          3.97556        3.32600        2.75504
C          6.07904        2.96766        1.49573
H          6.75670       -2.47631       -0.87628
H          6.71633       -0.74209       -1.15338
H          6.48119       -1.37140        0.47271
H          3.18805       -3.08016       -0.29425
H          4.80066       -3.76413       -0.38058
H          4.34482       -2.76408        0.99748
H          3.39954       -1.85648       -2.51491
H          4.84238       -0.92265       -2.88297
H          4.94830       -2.67323       -2.71955
H          4.64488        4.22673       -0.53148
H          3.16177        4.48131        0.37897
H          4.66127        5.24133        0.90796
H          4.46944        4.16034        3.25247
H          2.91053        3.55005        2.72760
H          4.11718        2.43709        3.36915
H          6.49956        3.82021        2.02855
H          6.57143        2.90982        0.52795
H          6.32669        2.06358        2.05085
H          5.59949        2.63111       -1.62959
H          7.15018        1.79771       -1.87306
H          5.62864        1.02389       -2.36923
