111
-148.55229885
P         -2.56008        2.08258        1.07099
P          0.11689        0.46268        0.51244
C         -1.42270        1.70729        2.43514
C         -0.24903        1.03069        2.18192
C         -3.42746        3.69515        1.33940
C         -3.26466        4.60640        0.14293
C         -1.73453        2.07994        3.72717
H         -2.65982        2.59612        3.92417
C         -0.86507        1.77736        4.76106
H         -1.10876        2.06784        5.76997
C          0.31205        1.10149        4.50258
H          0.98758        0.86393        5.30781
C          0.61963        0.72373        3.20785
H          1.52786        0.18425        2.98850
Pd        -1.36037        1.61594       -0.84622
Cl        -3.11447        2.27629       -2.07222
Cl         0.04607        1.18521       -2.54764
C         -4.88516        3.26356        1.60499
C         -4.00653        0.93167        0.99679
H         -3.70864        4.15544       -0.74574
H         -3.75457        5.56997        0.30225
H         -2.21034        4.79353       -0.07435
H         -5.57053        4.04176        1.23853
H         -5.06488        3.19764        2.68816
H         -3.91303        0.36312        0.06115
C         -5.21141        1.89334        0.94599
C         -4.01005       -0.00365        2.18607
H         -2.97923        4.15482        2.23046
H         -6.07770        1.42384        1.43453
H         -5.51240        2.05689       -0.09935
H         -4.08469        0.55907        3.11847
H         -4.85261       -0.69836        2.14913
H         -3.08919       -0.58938        2.22860
C         -1.09651       -3.87515       -0.12689
C         -1.07690       -3.35234        1.19233
C         -0.71276       -2.02760        1.36826
C         -0.44903       -1.22183        0.29220
C         -0.57290       -1.69386       -0.98699
C         -0.93720       -3.00492       -1.23543
O         -1.22661       -5.27387       -0.33577
C         -1.38682       -4.21358        2.42653
H         -0.60384       -1.61214        2.35433
H         -0.35839       -1.01525       -1.79456
C         -1.10830       -3.46245       -2.69157
C          4.49574        0.62429       -0.71512
C          3.92365       -0.59600       -0.26769
C          2.58814       -0.59467        0.09649
C          1.85356        0.56246        0.10119
C          2.43412        1.76426       -0.20606
C          3.76651        1.83655       -0.58048
O          5.75399        0.61883       -1.37006
C          4.68856       -1.92629       -0.16538
H          2.09633       -1.51541        0.36206
H          1.82450        2.65151       -0.17326
C          4.36620        3.22992       -0.83390
C         -1.99406       -3.35290        3.55739
C         -2.41826       -5.30787        2.09642
C         -0.08532       -4.84924        2.93860
C          0.25080       -3.92297       -3.24047
C         -2.14048       -4.59897       -2.80121
C         -1.62664       -2.29768       -3.56690
C          0.01483       -5.96616       -0.38856
H         -2.86746       -2.80755        3.20199
H         -2.30973       -3.97901        4.39164
H         -1.27624       -2.63501        3.95111
H         -2.68684       -5.87490        2.98739
H         -3.32710       -4.86747        1.68767
H         -2.03028       -6.01142        1.36412
H          0.36792       -5.48381        2.18071
H          0.64029       -4.08068        3.20425
H         -0.26993       -5.45958        3.82226
H          0.64828       -4.75440       -2.66306
H          0.16446       -4.24390       -4.27820
H          0.97794       -3.11230       -3.19721
H         -1.81036       -5.48816       -2.27025
H         -3.09535       -4.29176       -2.37597
H         -2.30637       -4.87871       -3.84125
H         -0.88107       -1.51201       -3.67837
H         -1.87450       -2.64685       -4.56889
H         -2.52437       -1.85718       -3.13397
H          0.12045       -6.45672       -1.35600
H          0.84411       -5.27315       -0.24024
H          0.03907       -6.73239        0.38616
C          5.64173        0.42590       -2.77048
C          4.39598       -2.58169        1.20294
C          4.21831       -2.87165       -1.28411
C          6.21235       -1.73554       -0.25597
C          5.90396        3.20785       -0.88042
C          3.81908        3.78610       -2.15920
C          3.96467        4.17912        0.31672
H          4.64578       -1.90093        2.01625
H          3.34773       -2.85801        1.30474
H          4.98412       -3.48994        1.33209
H          4.73238       -3.83066       -1.22555
H          3.14760       -3.06046       -1.21046
H          4.41246       -2.44601       -2.26671
H          6.55384       -1.01418        0.48557
H          6.73683       -2.67512       -0.08365
H          6.50713       -1.36996       -1.23660
H          6.26473        2.63879       -1.73385
H          6.30908        4.21617       -0.96249
H          6.30921        2.75047        0.02147
H          2.73135        3.84499       -2.13738
H          4.20616        4.78633       -2.35164
H          4.09848        3.15134       -2.99771
H          4.27188        3.76875        1.27824
H          2.88920        4.34480        0.34895
H          4.43906        5.15320        0.19996
H          5.17796       -0.53662       -2.97962
H          5.02813        1.21155       -3.20799
H          6.63542        0.45235       -3.21816
