105
-153.06628906
Cl         0.02852        2.00066        3.03993
Pd        -0.47441        1.30937        0.95498
P         -1.11763        0.48630       -1.15754
N         -0.72101       -1.03146       -1.95996
C          0.19218       -2.02153       -1.60030
C          0.32713       -2.48493       -0.26732
C          1.28577       -3.47782        0.02374
C          1.40482       -3.98348        1.44207
C          2.22825       -5.27164        1.59676
C          3.49835       -5.21624        0.74322
C          3.14371       -5.04546       -0.74119
C          2.08540       -4.00176       -0.99597
C          1.89658       -3.56715       -2.30181
C          0.96647       -2.60679       -2.60119
H          0.84464       -2.26790       -3.61520
H          2.50413       -3.98898       -3.08458
H          4.04070       -4.78799       -1.31905
H          4.11843       -4.37174        1.06944
H          2.47641       -5.45275        2.65213
H          1.85149       -3.19027        2.05249
C         -0.66963       -2.11143        0.76479
C         -0.24379       -1.50962        1.98040
C         -1.17480       -1.36370        3.01314
C         -2.47333       -1.77339        2.85696
C         -2.91056       -2.35511        1.67313
C         -4.34492       -2.82158        1.59942
C         -4.81005       -3.22134        0.18982
C         -3.72662       -4.02524       -0.53341
C         -2.43459       -3.20472       -0.65806
C         -2.00796       -2.52609        0.62123
H         -1.61743       -3.84542       -1.01228
H         -4.07869       -4.35475       -1.52124
H         -5.03749       -2.31974       -0.39194
H         -4.99328       -2.03476        2.00484
H         -3.17504       -1.64777        3.66416
H         -0.86208       -0.89639        3.93040
N          1.05311       -1.00366        2.15407
P          1.60574        0.20481        0.99610
C          2.61276       -0.36248       -0.36178
C          3.64553       -1.24079       -0.14157
C          4.46342       -1.60853       -1.19496
C          4.25062       -1.09387       -2.46749
C          3.22138       -0.18091       -2.65743
C          2.40598        0.18611       -1.60271
H          1.60200        0.88920       -1.73919
H          3.05929        0.23755       -3.63591
C          5.13213       -1.48837       -3.60035
H          5.27149       -2.30153       -1.03464
H          3.80573       -1.63223        0.85048
C          2.54417        1.52275        1.77520
C          3.26627        1.27905        2.91854
C          3.99194        2.30213        3.50160
C          3.99619        3.57337        2.94292
C          3.27643        3.79262        1.77605
C          2.55230        2.76854        1.19313
H          1.99010        2.93614        0.28739
H          3.28506        4.77107        1.32701
C          4.79237        4.67046        3.55931
H          4.56052        2.11841        4.39719
H          3.26711        0.29023        3.34765
H          1.21028       -0.56176        3.05059
H         -0.99206       -0.95062       -2.93188
C         -0.62398        1.85274       -2.22108
C         -0.88302        3.14638       -1.83610
C         -0.48925        4.20117       -2.63680
C          0.17328        3.96847       -3.83392
C          0.41186        2.65626       -4.21852
C          0.01388        1.60425       -3.41426
H          0.21497        0.58835       -3.70979
H          0.91334        2.46342       -5.15157
C          0.58116        5.10265       -4.70844
H         -0.69538        5.21411       -2.33580
H         -1.39955        3.32448       -0.90790
C         -2.91352        0.51139       -1.10515
C         -3.60535        0.25859        0.05382
C         -4.98743        0.28848        0.05349
C         -5.68811        0.54132       -1.11713
C         -4.97297        0.78960       -2.28067
C         -3.58940        0.77362       -2.27328
H         -3.03130        0.96913       -3.17564
H         -5.50569        1.00103       -3.19202
C         -7.17634        0.58479       -1.11274
H         -5.53184        0.11934        0.96660
H         -3.05894        0.05677        0.96091
Cl        -2.31865        2.60484        0.97642
H          2.79597       -6.00153       -1.15038
H          1.62077       -6.13100        1.28624
H          4.11439       -6.11309        0.89977
H          0.39644       -4.13313        1.84813
H         -3.52050       -4.94490        0.02843
H         -2.56264       -2.43648       -1.42929
H         -4.46456       -3.67375        2.27917
H         -5.75151       -3.78699        0.23368
H          5.99479       -0.82439       -3.66986
H          5.50010       -2.50778       -3.47531
H          4.59580       -1.44520       -4.54938
H          5.80150        4.69644        3.14591
H          4.32916        5.64152        3.37903
H          4.87379        4.53897        4.63917
H          1.46586        4.84978       -5.29450
H         -0.21904        5.36396       -5.40220
H          0.81804        5.98906       -4.11830
H         -7.58774       -0.12814       -0.39667
H         -7.53342        1.57909       -0.84127
H         -7.58138        0.33783       -2.09509
