111
-148.55223822
P         -1.60380        2.80564       -0.23204
P         -0.49977       -0.09828        0.45966
C         -1.72886        2.15885        1.46209
C         -1.31035        0.87483        1.74334
C         -0.35987        4.17269       -0.29003
C          0.81262        3.78808       -1.16703
C         -2.20732        2.96028        2.47901
H         -2.49064        3.97780        2.26583
C         -2.29428        2.46292        3.76791
H         -2.67261        3.08802        4.56022
C         -1.89063        1.17023        4.04165
H         -1.95334        0.78501        5.04605
C         -1.38634        0.37678        3.02695
H         -1.03374       -0.62274        3.22830
Pd        -1.23181        0.90264       -1.48725
Cl        -2.37519        1.78308       -3.19791
Cl        -0.62406       -1.01063       -2.50960
C         -1.17023        5.37793       -0.80964
C         -3.11388        3.72236       -0.78655
H          0.47659        3.55593       -2.17977
H          1.54274        4.59797       -1.23537
H          1.32473        2.90337       -0.78329
H         -0.96781        5.50029       -1.88246
H         -0.81857        6.30772       -0.33773
H         -3.21623        3.50648       -1.85789
C         -2.69982        5.19232       -0.59496
C         -4.36570        3.29976       -0.04789
H         -0.04085        4.33676        0.74763
H         -2.97367        5.51117        0.41998
H         -3.27417        5.84273       -1.27243
H         -4.54795        2.22868       -0.16124
H         -4.28428        3.50601        1.01942
H         -5.24439        3.83345       -0.41707
C         -0.96123       -4.61146        0.83546
C          0.32725       -4.02497        0.91824
C          0.42969       -2.64996        0.79345
C         -0.68550       -1.86504        0.66011
C         -1.93934       -2.41654        0.67714
C         -2.11427       -3.78543        0.80406
O         -1.09327       -6.02316        0.75058
C          1.60765       -4.85535        1.09951
H          1.39267       -2.17041        0.78327
H         -2.78500       -1.75773        0.57692
C         -3.54115       -4.35262        0.86978
C          3.80613        1.33253        0.06948
C          3.27947        0.41108       -0.87128
C          1.96623        0.00210       -0.72081
C          1.21715        0.40311        0.35266
C          1.75189        1.21406        1.31839
C          3.05674        1.66826        1.22626
O          5.06248        1.95124       -0.16764
C          4.08276       -0.10902       -2.07254
H          1.48759       -0.60678       -1.46772
H          1.12431        1.50863        2.14085
C          3.61912        2.55146        2.35043
C          2.69677       -4.03118        1.82411
C          1.34085       -6.10266        1.96135
C          2.14585       -5.26695       -0.27928
C         -4.50230       -3.33616        1.52746
C         -4.03692       -4.64418       -0.55478
C         -3.59304       -5.63246        1.72399
C         -1.08908       -6.52736       -0.57920
H          3.55501       -4.65618        2.06990
H          3.06451       -3.21462        1.20429
H          2.31180       -3.61158        2.75318
H          2.26047       -6.65899        2.14103
H          0.92152       -5.81957        2.92624
H          0.63819       -6.77656        1.47763
H          3.06782       -5.83990       -0.18365
H          1.42570       -5.87741       -0.81821
H          2.35545       -4.38817       -0.88849
H         -4.65295       -2.45890        0.90021
H         -5.48276       -3.78222        1.69287
H         -4.11733       -3.00698        2.49231
H         -5.05357       -5.03614       -0.54228
H         -4.03195       -3.73614       -1.15728
H         -3.40179       -5.37294       -1.05231
H         -3.20256       -5.44268        2.72323
H         -4.61539       -5.99654        1.82266
H         -3.00198       -6.43022        1.28154
H         -0.27419       -7.24153       -0.69645
H         -2.02636       -7.04699       -0.77712
H         -0.96610       -5.71273       -1.29410
C          4.98299        3.15696       -0.91828
C          5.58477       -0.19198       -1.74658
C          3.62668       -1.53698       -2.45131
C          3.84875        0.81742       -3.27557
C          5.13508        2.34104        2.51592
C          3.31833        4.02493        2.03629
C          2.96452        2.19370        3.70439
H          6.00228        0.79040       -1.54177
H          5.75261       -0.81529       -0.86890
H          6.14313       -0.62007       -2.57872
H          4.27420       -1.95907       -3.21943
H          3.66161       -2.19626       -1.58452
H          2.61283       -1.54635       -2.84831
H          2.79012        0.85517       -3.53184
H          4.17270        1.83296       -3.06031
H          4.39570        0.46737       -4.15055
H          5.67836        2.65075        1.62673
H          5.52163        2.91819        3.35553
H          5.35909        1.28995        2.69483
H          2.24424        4.18973        1.95563
H          3.70157        4.67742        2.82036
H          3.77079        4.32837        1.09531
H          1.91096        2.46845        3.72876
H          3.45176        2.72476        4.52181
H          3.04590        1.12548        3.90383
H          5.56117        3.05631       -1.83661
H          3.94575        3.38403       -1.16619
H          5.40567        3.97725       -0.33838
