87
-129.18473413
P         -1.58283       -0.31984       -0.38691
P          1.67048        0.23610        0.17605
C         -1.14723        0.91692       -1.61405
C          1.53260       -0.84214       -1.27107
C         -0.06515        0.69177       -2.45564
C          0.26799        1.67377       -3.41014
C         -0.49817        2.82508       -3.48903
C         -1.57036        3.02671       -2.64556
C         -1.89231        2.06676       -1.70671
C          2.22676       -2.02656       -1.19371
C          2.11519       -2.97374       -2.19229
C          1.28614       -2.73552       -3.26598
C          0.56798       -1.55653       -3.36375
C          0.70272       -0.57825       -2.35952
Cl         0.99841        0.01281        3.31441
Cl        -1.67975       -1.68963        2.55053
H         -2.15273        3.93075       -2.71575
H         -2.73218        2.21268       -1.04805
H          2.85699       -2.21678       -0.34063
H          2.66318       -3.89924       -2.12443
H         -0.24079        3.57322       -4.21948
H          1.18172       -3.47651       -4.04037
C         -2.36456       -4.30642       -2.41364
C         -1.49460       -4.25513       -1.33309
C         -1.28018       -3.03049       -0.71258
C         -1.92126       -1.89962       -1.16150
C         -2.78842       -1.95909       -2.22694
C         -3.01362       -3.16998       -2.85525
H         -2.52748       -5.24773       -2.91028
C         -0.76400       -5.46901       -0.87865
H         -0.60028       -2.96353        0.11994
H         -3.27119       -1.05724       -2.56969
H         -3.68738       -3.22393       -3.69460
C         -5.17290        1.10688        2.03042
C         -5.26871       -0.04910        1.28091
C         -4.18481       -0.48400        0.54193
C         -3.01712        0.24174        0.55302
C         -2.91856        1.39124        1.30257
C         -3.99424        1.83950        2.05831
H         -6.01672        1.44801        2.60560
H         -6.18612       -0.61456        1.27477
H         -4.24177       -1.39072       -0.03759
H         -1.99862        1.95028        1.30134
C         -3.88240        3.09281        2.85301
C          5.57509       -0.55802        2.38040
C          4.52587       -1.44591        2.51120
C          3.33624       -1.21045        1.84846
C          3.20248       -0.08856        1.06372
C          4.24701        0.79751        0.93238
C          5.45386        0.57252        1.58455
H          6.49996       -0.73486        2.90260
H          4.63052       -2.31821        3.13537
H          2.50337       -1.88699        1.95800
H          4.12477        1.67652        0.32274
C          6.57276        1.54682        1.46664
C          1.08108        4.68536       -0.53500
C          1.94304        3.97543       -1.34808
C          2.13998        2.62421       -1.13230
C          1.47118        1.99722       -0.10788
C          0.64034        2.70928        0.72654
C          0.42555        4.06618        0.52037
H          0.91242        5.73370       -0.71326
H          2.45121        4.47035       -2.15935
H          2.79483        2.05026       -1.76842
H          0.17870        2.21409        1.56354
C         -0.52076        4.82191        1.38497
Pd        -0.15011       -0.47322        1.45095
C          1.42530        1.50290       -4.33168
C         -0.33713       -1.35660       -4.52994
H          1.08606        1.28619       -5.34537
H          2.03054        2.40985       -4.36792
H          2.07462        0.68719       -4.01180
H          0.23183       -1.10487       -5.42568
H         -0.90707       -2.26314       -4.73842
H         -1.05385       -0.55520       -4.34782
H         -1.34649       -6.37253       -1.06402
H          0.18731       -5.56644       -1.40371
H         -0.55451       -5.42304        0.19105
H         -4.64790        3.13997        3.62870
H         -2.91001        3.15721        3.34360
H         -3.99637        3.96909        2.21328
H          7.53961        1.04787        1.54687
H          6.54528        2.06313        0.50593
H          6.51504        2.29903        2.25458
H         -1.53021        4.78969        0.97237
H         -0.55465        4.40163        2.39117
H         -0.22511        5.86828        1.47259
