105
-153.06685135
Cl         0.25123        3.45470        2.26127
Pd        -0.27764        1.95387        0.67936
P         -0.73356        0.48652       -1.13961
N          0.43495       -0.76492       -1.54515
C          0.54703       -2.14637       -1.31584
C          0.00982       -2.81119       -0.18064
C          0.36209       -4.15510        0.06543
C          0.02351       -4.79019        1.39355
C         -0.07571       -6.31939        1.31390
C          1.20556       -6.89855        0.70499
C          1.46137       -6.32889       -0.70195
C          1.12648       -4.86382       -0.86598
C          1.60225       -4.20462       -1.99242
C          1.34661       -2.87362       -2.19609
H          1.75732       -2.36706       -3.05243
H          2.20075       -4.75088       -2.70185
H          2.51100       -6.48157       -0.98367
H          2.05509       -6.65684        1.35614
H         -0.27751       -6.75555        2.30247
H          0.80482       -4.51188        2.11115
C         -0.75103       -2.05715        0.84370
C         -0.07131       -1.05340        1.57103
C         -0.73973       -0.38367        2.59227
C         -2.04542       -0.68407        2.88385
C         -2.73841       -1.66218        2.17773
C         -4.16562       -1.95185        2.58422
C         -4.90916       -2.97548        1.70488
C         -3.96159       -4.05407        1.16923
C         -2.83117       -3.40338        0.36176
C         -2.09055       -2.35410        1.15108
H         -2.13829       -4.16148       -0.02027
H         -4.50417       -4.79492        0.56508
H         -5.37659       -2.45874        0.85802
H         -4.71804       -1.00387        2.60563
H         -2.55234       -0.15518        3.67306
H         -0.21609        0.38027        3.13952
N          1.23640       -0.73317        1.22518
P          1.79405        0.93387        1.18770
C          2.61752        1.22894       -0.38095
C          2.32303        2.36210       -1.10217
C          2.81597        2.50826       -2.38466
C          3.59945        1.51646       -2.95728
C          3.91775        0.39721       -2.20085
C          3.43121        0.25588       -0.91389
H          3.65721       -0.62721       -0.33759
H          4.54244       -0.36791       -2.62963
C          4.11932        1.66780       -4.34422
H          2.57600        3.38770       -2.95765
H          1.69785        3.12589       -0.66812
C          2.94943        1.17360        2.53677
C          2.97017        2.32957        3.27877
C          3.89581        2.48246        4.29328
C          4.80409        1.47178        4.57808
C          4.77143        0.31161        3.81592
C          3.84361        0.16303        2.79963
H          3.80769       -0.74058        2.21144
H          5.47738       -0.47466        4.02209
C          5.81850        1.64417        5.65475
H          3.91638        3.38916        4.87351
H          2.24764        3.10001        3.07220
H          1.62561       -1.21213        0.42063
H          1.28567       -0.25502       -1.75452
C         -0.61722        1.65582       -2.50277
C         -1.12588        2.92866       -2.40562
C         -0.99986        3.80670       -3.46467
C         -0.37475        3.41126       -4.63946
C          0.12431        2.11902       -4.72625
C         -0.00264        1.24458       -3.66206
H          0.38322        0.24068       -3.72949
H          0.61840        1.80349       -5.62924
C         -0.20515        4.36643       -5.76907
H         -1.38582        4.80852       -3.38391
H         -1.62205        3.22940       -1.49880
C         -2.36570       -0.23804       -1.30766
C         -3.45281        0.16277       -0.56919
C         -4.69594       -0.38871       -0.81208
C         -4.86578       -1.33602       -1.81311
C         -3.76223       -1.71682       -2.56374
C         -2.51670       -1.16892       -2.30881
H         -1.65478       -1.46271       -2.88729
H         -3.88233       -2.45016       -3.34272
C         -6.19763       -1.94875       -2.07392
H         -5.54607       -0.07566       -0.23043
H         -3.33277        0.93010        0.17478
Cl        -2.35612        2.78926        0.54278
H          0.87856       -6.89645       -1.43736
H         -0.93330       -6.59472        0.68730
H          1.16017       -7.99645        0.67902
H         -0.89910       -4.36609        1.80352
H         -3.53269       -4.61247        2.01058
H         -3.25126       -2.93072       -0.53006
H         -4.15616       -2.30440        3.62264
H         -5.74098       -3.43239        2.25910
H          4.18483        0.70151       -4.84636
H          3.46713        2.30661       -4.94160
H          5.11473        2.11379       -4.33871
H          5.44390        2.29170        6.44877
H          6.08054        0.68607        6.10583
H          6.73149        2.09088        5.25869
H         -1.01082        5.10165       -5.78782
H          0.73981        4.90447       -5.68207
H         -0.20958        3.84654       -6.72811
H         -6.48427       -1.82535       -3.11924
H         -6.18290       -3.01692       -1.85220
H         -6.97416       -1.49090       -1.45965
