87
-129.18172656
P         -1.53916       -0.17009       -0.31965
P          1.75012        0.24215        0.18401
C         -1.07466        0.99222       -1.60659
C          1.52339       -0.88191       -1.21874
C         -0.01752        0.67634       -2.45024
C          0.34215        1.59162       -3.45999
C         -0.37668        2.76862       -3.58996
C         -1.42688        3.05936       -2.74459
C         -1.77396        2.16513       -1.75128
C          2.15414       -2.09802       -1.09752
C          1.97218       -3.08376       -2.04731
C          1.13479       -2.85192       -3.11572
C          0.47857       -1.64173       -3.25662
C          0.68712       -0.62511       -2.30441
Cl         1.17857        0.11300        3.28015
Cl        -1.63265       -1.55003        2.61526
H         -1.97294        3.98172       -2.85614
H         -2.59895        2.37918       -1.09257
H          2.78918       -2.28275       -0.24670
H          2.47101       -4.03353       -1.94460
H         -0.10016        3.46533       -4.36303
H          0.97423       -3.62202       -3.85114
C         -2.67555       -4.14209       -2.20305
C         -1.75696       -4.12508       -1.16234
C         -1.43194       -2.90366       -0.58526
C         -2.01378       -1.74232       -1.03681
C         -2.92926       -1.76720       -2.06246
C         -3.26418       -2.97431       -2.64761
H         -2.92458       -5.08158       -2.66627
C         -1.09189       -5.37499       -0.70497
H         -0.71298       -2.86412        0.21556
H         -3.36489       -0.84261       -2.40782
H         -3.97636       -3.00153       -3.45595
C         -4.97308        1.51152        2.16073
C         -3.78814        2.21335        2.06154
C         -2.74879        1.70579        1.30604
C         -2.90363        0.50776        0.64822
C         -4.08143       -0.19508        0.74973
C         -5.13365        0.29338        1.51490
H         -5.78560        1.90498        2.74752
H         -3.67162        3.15392        2.57459
H         -1.81754        2.24099        1.22211
H         -4.18384       -1.13784        0.24005
C         -6.41366       -0.46006        1.60888
C          5.75851       -0.57592        2.18461
C          4.69028       -1.41513        2.43143
C          3.46729       -1.16803        1.83720
C          3.32074       -0.08597        1.00058
C          4.38435        0.75149        0.75356
C          5.61936        0.52402        1.34979
H          6.71347       -0.76872        2.64313
H          4.80765       -2.26037        3.08963
H          2.62078       -1.80601        2.03661
H          4.25626        1.59316        0.09450
C          6.77498        1.41779        1.06528
C          1.20335        4.68539       -0.60024
C          2.00943        3.94227       -1.44046
C          2.19388        2.59272       -1.20469
C          1.56801        2.00015       -0.13375
C          0.79538        2.74577        0.72695
C          0.59345        4.10168        0.50153
H          1.04431        5.73275       -0.79254
H          2.48319        4.40995       -2.28791
H          2.80455        1.99338       -1.86086
H          0.37461        2.27773        1.60058
C         -0.28810        4.89781        1.39801
Pd        -0.08587       -0.38003        1.49625
C          1.47643        1.32214       -4.38648
C         -0.44192       -1.45016       -4.41223
H          2.09470        0.49647       -4.03238
H          1.11241        1.06768       -5.38264
H          2.11965        2.19849       -4.47876
H         -1.06261       -2.33436       -4.56419
H         -1.11216       -0.60459       -4.25458
H          0.11824       -1.27158       -5.33079
H         -0.85813       -5.32720        0.35963
H         -1.73144       -6.24404       -0.86550
H         -0.15915       -5.53687       -1.24719
H         -6.24010       -1.53569        1.55270
H         -6.92259       -0.25634        2.55204
H         -7.08650       -0.18423        0.79570
H          6.44154        2.43225        0.84170
H          7.45004        1.47258        1.92052
H          7.34441        1.05406        0.20882
H          0.08218        5.91795        1.50851
H         -1.30187        4.94817        0.99799
H         -0.34115        4.45471        2.39356
