100
-131.97415792
C         -1.68174        3.80980       -1.39323
C         -2.38413        2.52113       -1.39591
C         -0.28686        3.55951       -1.48651
C         -0.06261        2.08750       -1.54226
C          1.12016        1.54072       -2.27013
C         -1.43018        1.45856       -1.54004
C         -1.81490        0.05993       -1.99862
C         -0.88054       -0.54688       -3.02559
Cl         1.13489       -0.65363        2.69485
Cl        -1.83255       -1.38849        2.34611
C          3.25239        0.61796       -3.84049
C          2.48271        1.67584       -4.28175
C          2.97352        0.03024       -2.61503
C          1.44418        2.13354       -3.51047
C          1.92179        0.46127       -1.84075
H         -3.46828        2.40651       -1.44192
H          0.49265        4.31872       -1.58461
H          0.06547       -0.82767       -2.56502
H         -1.30223       -1.44513       -3.48228
H         -0.66449        0.15947       -3.83058
H          4.07643        0.26136       -4.43655
H          2.69922        2.14199       -5.22937
H          3.61270       -0.76058       -2.25755
H          0.83909        2.95249       -3.85958
H         -2.15565        4.79477       -1.38350
P          1.82734       -0.28850       -0.19708
H         -2.81194        0.13195       -2.45035
P         -2.04811       -1.07066       -0.55220
H         -3.00221       -3.04087       -1.61134
C         -1.78105       -3.88780       -0.04918
C         -2.05415       -2.82870       -1.12137
C         -2.95865       -4.06522        0.91083
H         -3.43338        0.29590        0.83637
C         -4.84492       -0.30753       -0.67095
C         -3.64832       -0.59157        0.24179
H         -4.57012        0.52266       -1.34351
C         -5.21860       -1.50877       -1.53891
H          3.55262       -1.92462       -0.58238
H          2.66948        0.65561        1.86806
C          3.69333        3.15847        1.30785
C          2.81537        2.25077        0.42717
C          2.97189        0.77575        0.82229
C          4.44325        0.35338        0.69611
C          5.35340        1.25095        1.56050
C          5.17253        2.73984        1.20482
H          3.36321        3.08007        2.35110
H          3.56171        4.21484        1.03478
H          3.11872        2.36585       -0.62088
H          1.76094        2.54963        0.45430
H          4.56853       -0.70222        0.96895
H          4.74338        0.42573       -0.35594
H          5.10903        1.09920        2.61924
H          6.40554        0.95073        1.45693
H          5.52814        2.91388        0.18144
H          5.80204        3.37327        1.84573
C          2.35453       -4.27230       -1.43410
C          1.76019       -2.85381       -1.31841
C          2.50722       -2.02258       -0.26816
C          2.48627       -2.73454        1.09191
C          3.09981       -4.14395        0.99124
C          2.36168       -4.98475       -0.06746
H          3.38214       -4.20312       -1.81205
H          1.80780       -4.86390       -2.18160
H          0.70800       -2.91589       -1.02389
H          1.76443       -2.34427       -2.29124
H          2.99423       -2.12948        1.85451
H          1.44792       -2.81745        1.43302
H          4.15867       -4.06007        0.71683
H          3.08755       -4.64534        1.96915
H          1.32921       -5.15236        0.26229
H          2.80802       -5.98572       -0.15171
H         -0.90791       -3.55113        0.53802
C         -1.43217       -5.22898       -0.70366
H         -3.91426       -1.37223        0.95110
C         -6.04532        0.15080        0.16344
H         -1.29347       -2.89899       -1.89905
H         -2.77343       -4.87615        1.61699
H         -3.87074       -4.30765        0.36480
H         -3.14732       -3.16702        1.49504
H         -1.18259       -5.98611        0.04132
H         -2.27767       -5.60328       -1.28168
H         -0.58652       -5.13727       -1.38627
H         -6.13459       -1.32072       -2.10150
H         -4.43831       -1.74309       -2.26282
H         -5.38818       -2.39296       -0.92376
H         -6.36062       -0.63805        0.84711
H         -5.80288        1.02874        0.76459
H         -6.90027        0.40147       -0.46654
Fe        -1.06657        2.64547        0.14275
C         -2.46824        3.06152        1.59879
C         -1.58996        4.20266        1.41068
C         -0.22754        3.77879        1.67033
C         -0.27324        2.36664        1.99444
C         -1.65699        1.93441        2.00503
H         -3.55737        3.06827        1.51229
H         -1.90539        5.21751        1.15776
H          0.66296        4.41063        1.63915
H          0.56903        1.74563        2.30490
H         -2.00344        0.93764        2.28110
Pd        -0.23980       -0.66429        0.88468
