111
-148.55771335
P         -2.68682        1.78561        0.72686
P          0.20465        0.50702        0.46057
C         -1.70914        1.44616        2.21542
C         -0.42490        0.95920        2.09340
C         -3.70461        3.31958        0.91633
C         -3.06668        4.51014        0.23453
C         -2.24185        1.68030        3.46720
H         -3.25297        2.04170        3.55788
C         -1.48130        1.43476        4.59724
H         -1.89667        1.61744        5.57487
C         -0.19177        0.95537        4.47330
H          0.40053        0.76263        5.35267
C          0.33513        0.71206        3.21809
H          1.33406        0.32255        3.10912
Pd        -1.19373        1.62388       -1.02346
Cl        -2.74700        2.56099       -2.34199
Cl         0.33227        1.34293       -2.64510
C         -5.06444        2.88945        0.33679
C         -4.01758        0.54714        0.37180
H         -2.95273        4.33166       -0.83510
H         -3.67342        5.41070        0.35403
H         -2.07286        4.71368        0.64014
H         -5.07907        3.12243       -0.73699
H         -5.87717        3.48467        0.78055
H         -3.88419        0.25316       -0.67807
C         -5.31203        1.36679        0.54008
C         -3.91597       -0.65635        1.28370
H         -3.79555        3.50166        1.99455
H         -5.71021        1.19406        1.54935
H         -6.08848        1.00089       -0.14869
H         -2.96528       -1.17510        1.14981
H         -3.97971       -0.35557        2.33102
H         -4.71938       -1.37158        1.09285
C         -1.43088       -3.65075       -0.41531
C         -1.08927       -2.78737       -1.48969
C         -0.57653       -1.53965       -1.18470
C         -0.35014       -1.16067        0.11166
C         -0.55299       -2.03876        1.14333
C         -1.04708       -3.31133        0.91002
O         -2.22921       -4.79899       -0.65288
C         -1.27219       -3.14102       -2.97433
H         -0.36508       -0.82948       -1.96535
H         -0.34176       -1.71185        2.14718
C         -1.14135       -4.27265        2.10592
C          4.74489        0.58073        0.10433
C          4.10933       -0.39459        0.91467
C          2.72556       -0.39434        0.97554
C          1.98879        0.57840        0.35108
C          2.60379        1.58627       -0.34347
C          3.98295        1.63349       -0.46400
O          6.13489        0.48154       -0.17049
C          4.88719       -1.46051        1.70294
H          2.19974       -1.17337        1.50058
H          1.98336        2.32268       -0.82355
C          4.62455        2.78449       -1.25440
C          0.00899       -2.76824       -3.75296
C         -1.51224       -4.64451       -3.19314
C         -2.45637       -2.34113       -3.54363
C          0.18762       -4.23716        2.89315
C         -2.28703       -3.82870        3.03080
C         -1.36711       -5.73021        1.66856
C         -3.61781       -4.53000       -0.55034
H          0.87975       -3.25665       -3.31660
H         -0.06509       -3.07992       -4.79444
H          0.18776       -1.69436       -3.74899
H         -2.45568       -4.96071       -2.75451
H         -1.54511       -4.88668       -4.25513
H         -0.71722       -5.23129       -2.73437
H         -2.59678       -2.55380       -4.60299
H         -3.38194       -2.58652       -3.02638
H         -2.29055       -1.26951       -3.43610
H          0.17775       -4.96351        3.70539
H          1.02730       -4.47414        2.24023
H          0.37073       -3.25898        3.33480
H         -2.12747       -2.81220        3.38945
H         -3.24330       -3.85100        2.51168
H         -2.36147       -4.48256        3.89930
H         -2.33511       -5.85270        1.18855
H         -0.60117       -6.04132        0.95903
H         -1.33482       -6.40626        2.52265
H         -3.86235       -4.20244        0.45870
H         -3.89939       -3.74523       -1.25070
H         -4.17772       -5.43677       -0.78000
C          6.44574       -0.32099       -1.30285
C          4.12544       -1.84587        2.99225
C          5.04930       -2.71815        0.83594
C          6.26587       -0.93353        2.14077
C          6.01105        3.14200       -0.68920
C          4.74122        2.37848       -2.73162
C          3.75830        4.06137       -1.16424
H          3.88240       -0.95973        3.57804
H          3.20014       -2.37625        2.77247
H          4.72969       -2.50383        3.61642
H          4.07607       -3.11673        0.55013
H          5.59819       -2.50030       -0.07706
H          5.58798       -3.49706        1.37501
H          6.89736       -0.71171        1.28437
H          6.15939       -0.01837        2.72228
H          6.78892       -1.66651        2.75450
H          6.43776        3.99845       -1.21064
H          5.94161        3.38934        0.36954
H          6.70782        2.31405       -0.79308
H          5.17839        3.18142       -3.32448
H          5.36458        1.49562       -2.84996
H          3.75960        2.14839       -3.14537
H          4.27271        4.90995       -1.61467
H          3.54434        4.31258       -0.12576
H          2.81310        3.94507       -1.69241
H          5.53222       -0.70060       -1.76230
H          6.99894        0.27279       -2.03036
H          7.07461       -1.15745       -0.99857
