111
-148.55085769
P         -2.51954        2.12709        0.90046
P          0.12245        0.38895        0.53490
C         -1.43946        1.79279        2.32293
C         -0.27921        1.06926        2.15153
C         -3.35873        3.76676        1.09912
C         -3.17942        4.63655       -0.12519
C         -1.78156        2.24920        3.58027
H         -2.69814        2.79910        3.71690
C         -0.95474        1.98667        4.65906
H         -1.22246        2.34356        5.64019
C          0.21071        1.26644        4.48095
H          0.85348        1.06055        5.32096
C          0.54771        0.80244        3.22214
H          1.44686        0.22676        3.06591
Pd        -1.28199        1.46595       -0.94230
Cl        -2.88220        2.35129       -2.23963
Cl         0.03837        0.87063       -2.66141
C         -4.82436        3.37244        1.37722
C         -3.99088        1.00592        0.84024
H         -3.64536        4.17345       -0.99590
H         -3.63905        5.61867        0.00865
H         -2.12210        4.78495       -0.35660
H         -5.49441        4.15192        0.98595
H         -5.00571        3.34421        2.46174
H         -3.90384        0.41712       -0.08343
C         -5.17678        1.98908        0.76140
C         -4.02045        0.09305        2.04670
H         -2.90418        4.25075        1.97393
H         -6.05091        1.55151        1.26527
H         -5.47715        2.12592       -0.28792
H         -3.11496       -0.51531        2.10280
H         -4.08332        0.67452        2.96839
H         -4.87996       -0.58104        2.02006
C         -1.17985       -3.95688        0.13870
C         -1.13268       -3.36300        1.42671
C         -0.72532       -2.04291        1.52699
C         -0.44949       -1.30416        0.40671
C         -0.60692       -1.84106       -0.84338
C         -1.00603       -3.15369       -1.01688
O         -1.35763       -5.35992        0.00876
C         -1.47512       -4.14121        2.70679
H         -0.60325       -1.57539        2.48785
H         -0.39637       -1.21134       -1.69044
C         -1.20430       -3.68514       -2.44442
C          4.48518        0.75074       -0.71471
C          3.81680       -0.49511       -0.82260
C          2.49114       -0.56053       -0.43109
C          1.85436        0.52526        0.11019
C          2.52377        1.70398        0.30906
C          3.85473        1.83699       -0.05406
O          5.76697        0.92155       -1.30207
C          4.48245       -1.75499       -1.39780
H          1.92751       -1.46693       -0.56357
H          1.98399        2.52759        0.74392
C          4.58052        3.15977        0.23794
C         -2.03953       -3.19366        3.78961
C         -2.55511       -5.20476        2.43690
C         -0.20225       -4.80617        3.25196
C         -1.69592       -2.55595       -3.37971
C          0.13539       -4.21567       -2.97764
C         -2.27052       -4.79456       -2.48296
C         -0.14068       -6.09576       -0.01086
H         -1.28691       -2.49235        4.14661
H         -2.88489       -2.62480        3.40419
H         -2.38529       -3.75877        4.65489
H         -3.44498       -4.74706        2.00600
H         -2.20069       -5.96285        1.74289
H         -2.84546       -5.71091        3.35722
H         -0.41131       -5.35704        4.16864
H          0.21837       -5.50245        2.53035
H          0.55864       -4.05807        3.47334
H         -0.92796       -1.80120       -3.54165
H         -1.96401       -2.95305       -4.35837
H         -2.57573       -2.06458       -2.96514
H          0.02832       -4.59694       -3.99277
H          0.88418       -3.42406       -2.99216
H          0.51737       -5.02062       -2.35405
H         -3.21152       -4.43631       -2.06683
H         -2.45528       -5.12528       -3.50469
H         -1.96120       -5.66312       -1.90723
H         -0.05172       -6.63287       -0.95495
H          0.71170       -5.42540        0.10720
H         -0.14310       -6.82647        0.79783
C          5.72865        1.36669       -2.65225
C          4.24949       -1.80105       -2.91568
C          5.99009       -1.77800       -1.08857
C          3.87394       -3.03004       -0.76847
C          4.00547        3.82804        1.50761
C          6.08023        2.92615        0.49627
C          4.39008        4.11631       -0.94895
H          3.18327       -1.80818       -3.14107
H          4.68442       -0.93458       -3.40788
H          4.69355       -2.69517       -3.35246
H          6.50619       -0.94873       -1.56564
H          6.16253       -1.70514       -0.01530
H          6.44908       -2.70011       -1.44427
H          2.84032       -3.18027       -1.07660
H          4.42952       -3.91582       -1.07559
H          3.90322       -2.97733        0.31954
H          4.00853        3.13277        2.34672
H          4.59981        4.69660        1.79048
H          2.98518        4.17604        1.35388
H          6.57824        2.53035       -0.38525
H          6.58065        3.85544        0.76736
H          6.22328        2.21427        1.30850
H          4.80235        3.69693       -1.86346
H          4.88244        5.07075       -0.76447
H          3.33164        4.30969       -1.12170
H          6.26459        2.31149       -2.74130
H          6.22033        0.63521       -3.29329
H          4.69651        1.50113       -2.97857
