171
-217.83797594
P         -1.51911        0.24261       -0.32290
P          1.66496       -0.70916        0.30681
C         -0.56944        0.91859       -1.69822
C          0.90961       -1.80689       -0.91333
C          0.25710        0.07083       -2.42528
C          1.02066        0.59962       -3.48359
C          0.89101        1.94232       -3.79989
C          0.05511        2.76658       -3.07569
C         -0.67159        2.24909       -2.02192
C          0.89105       -3.13437       -0.55557
C          0.28111       -4.06804       -1.37096
C         -0.32212       -3.65803       -2.54032
C         -0.33005       -2.32392       -2.91099
C          0.30362       -1.37455       -2.08719
Cl         0.83846       -0.55586        3.46736
Cl        -2.15818       -1.21171        2.66638
C         -1.02782       -1.92790       -4.16509
C          1.94341       -0.26461       -4.26993
H         -0.02789        3.81119       -3.32777
H         -1.32473        2.88612       -1.45147
H          1.34939       -3.43656        0.37469
H          0.27010       -5.10818       -1.08899
H          1.44960        2.34028       -4.62971
H         -0.80867       -4.37808       -3.17657
C         -4.40929       -2.83413       -1.96069
C         -4.26452       -1.62541       -2.63040
C         -3.37156       -0.69835       -2.10528
C         -2.67356       -0.97398       -0.95494
C         -2.83004       -2.17400       -0.30931
C         -3.69316       -3.13888       -0.81011
H         -5.11181       -3.55500       -2.33585
H         -3.20006        0.24052       -2.60182
H         -2.28623       -2.34372        0.60193
C         -3.98246        3.60813        1.51481
C         -4.12245        3.30351        0.16740
C         -3.36381        2.25900       -0.34621
C         -2.48419        1.56550        0.44960
C         -2.37184        1.87949        1.78331
C         -3.12254        2.90133        2.34529
H         -4.56325        4.41492        1.92057
H         -3.45024        1.98424       -1.38223
H         -1.70706        1.31680        2.41179
C          5.55515       -2.63764        1.59478
C          4.71950       -2.12914        2.58140
C          3.52024       -1.55633        2.18115
C          3.17863       -1.50529        0.85429
C          4.01304       -2.01942       -0.10807
C          5.22663       -2.59637        0.24553
H          6.49131       -3.07762        1.88586
H          2.83218       -1.15154        2.89977
H          3.70463       -1.96936       -1.13864
C          2.94891        3.50161       -0.77984
C          1.90220        3.34880        0.12228
C          1.49124        2.05715        0.42565
C          2.10275        0.97280       -0.15964
C          3.14574        1.14470       -1.03618
C          3.59601        2.41823       -1.36039
H          3.29065        4.48911       -1.02637
H          0.70294        1.89881        1.14010
H          3.61950        0.27304       -1.45183
Pd        -0.31787       -0.54533        1.54310
C         -6.57413       -1.05772       -3.38985
C         -5.13084       -1.31075       -3.85922
C         -5.11030       -2.49454       -4.84623
C         -4.62456       -0.05832       -4.60274
H         -6.61072       -0.22225       -2.69081
H         -7.22458       -0.82324       -4.23230
H         -6.97952       -1.93384       -2.88435
H         -5.53531       -3.39412       -4.40362
H         -5.69134       -2.26396       -5.73908
H         -4.09254       -2.72214       -5.16032
H         -4.70212        0.83119       -3.97854
H         -3.58487       -0.17701       -4.90661
H         -5.21453        0.12291       -5.50108
C         -5.33376       -4.62831        0.35938
C         -3.87815       -4.49857       -0.12304
C         -2.94193       -4.65101        1.09266
C         -3.55747       -5.62338       -1.12470
H         -6.03280       -4.57334       -0.47437
H         -5.49335       -5.57911        0.86758
H         -5.58002       -3.82712        1.05596
H         -3.15599       -3.89809        1.85083
H         -3.06606       -5.62918        1.55678
H         -1.89731       -4.55547        0.79700
H         -4.22524       -5.59217       -1.98471
H         -2.53544       -5.53143       -1.49106
H         -3.66134       -6.60267       -0.65785
C         -5.13427        3.58105       -2.15180
C         -5.07406        4.12736       -0.71133
C         -4.57689        5.58343       -0.75989
C         -6.49374        4.07927       -0.11655
H         -5.48076        2.54780       -2.16332
H         -5.82364        4.16710       -2.75942
H         -4.15624        3.62452       -2.63086
H         -5.22239        6.19600       -1.38907
H         -4.55947        6.02790        0.23466
H         -3.56590        5.63101       -1.16457
H         -6.52206        4.51280        0.88227
H         -7.19592        4.63378       -0.73890
H         -6.84558        3.05021       -0.04532
C         -3.43692        1.92252        4.62800
C         -2.99996        3.17848        3.85052
C         -3.88572        4.36089        4.28669
C         -1.53722        3.51284        4.19402
H         -3.37796        2.08823        5.70343
H         -4.46443        1.65588        4.38197
H         -2.80491        1.06842        4.38711
H         -3.78180        4.54796        5.35543
H         -3.60509        5.27449        3.76276
H         -4.93791        4.15703        4.08913
H         -1.42581        3.73008        5.25609
H         -0.87438        2.68222        3.95503
H         -1.20253        4.38584        3.63490
C          6.45269       -1.43287        4.25427
C          5.13678       -2.20739        4.05681
C          5.33634       -3.68224        4.45135
C          4.06662       -1.59580        4.98280
H          6.33353       -0.39089        3.95779
H          6.76467       -1.45348        5.29833
H          7.25751       -1.86043        3.65746
H          4.41862       -4.24911        4.29571
H          6.12223       -4.14851        3.85834
H          5.61417       -3.77101        5.50146
H          3.11681       -2.12121        4.88584
H          4.37435       -1.66069        6.02625
H          3.90290       -0.54338        4.75225
C          6.45052       -4.65029       -0.51307
C          6.19772       -3.15919       -0.80160
C          7.52488       -2.38193       -0.73047
C          5.63167       -3.02811       -2.22981
H          5.51558       -5.20992       -0.53555
H          7.12110       -5.08298       -1.25533
H          6.90274       -4.79353        0.46755
H          7.99115       -2.48385        0.24880
H          8.23122       -2.74653       -1.47611
H          7.35918       -1.32029       -0.91292
H          6.32895       -3.43645       -2.96121
H          4.69205       -3.57110       -2.33082
H          5.45723       -1.98411       -2.48929
C         -0.25444        4.55880        0.59782
C          1.26316        4.54149        0.85055
C          1.84461        5.88506        0.36994
C          1.53771        4.40219        2.35902
H         -0.46572        4.69744       -0.46159
H         -0.71791        3.62802        0.91751
H         -0.73334        5.37258        1.14198
H          1.67978        6.02300       -0.69859
H          1.36941        6.71825        0.88767
H          2.91492        5.94371        0.56665
H          2.60971        4.38788        2.55456
H          1.10441        5.23351        2.91463
H          1.11720        3.47765        2.75203
C          4.35997        3.43325       -3.52548
C          4.80457        2.64736       -2.28006
C          5.43302        1.31511       -2.73525
C          5.87749        3.44808       -1.51782
H          3.61622        2.87176       -4.08837
H          3.92070        4.39211       -3.25262
H          5.20462        3.62734       -4.18632
H          4.72076        0.71606       -3.30096
H          6.29563        1.49314       -3.37718
H          5.77276        0.73094       -1.88016
H          6.18095        2.91994       -0.61403
H          6.76349        3.59810       -2.13455
H          5.50773        4.42960       -1.22399
H         -2.01987       -2.37789       -4.20902
H          1.42973       -0.70921       -5.12307
H         -0.47110       -2.25872       -5.04300
H         -1.15416       -0.84675       -4.23122
H          2.34355       -1.07351       -3.65647
H          2.78867        0.30854       -4.65327
