72
-108.40509041
Cl        -1.80674        0.75120        2.69117
Cl         1.00026       -0.78009        2.77458
P          1.10178       -1.14268       -0.30000
P         -2.24565        0.11146       -0.37161
C         -3.23260       -1.49412       -0.15264
C         -3.59726       -1.66408        1.32344
C         -4.49304       -1.45468       -1.00944
C         -3.34031        1.65043       -0.11197
C         -4.14224        1.95397       -1.38490
C         -1.44805        0.42773       -2.05332
C         -1.50915       -0.72565       -3.03334
C          1.12840        0.21919       -1.50314
C         -0.03375        0.97143       -1.97254
C          0.47317        2.06930       -2.79668
C          1.92037        1.97780       -2.83606
C          2.32428        0.81228       -2.07199
C         -2.36136       -2.67529       -0.55536
H         -2.71018       -1.63861        1.95637
H         -4.27960       -0.89404        1.67271
H         -4.26113       -1.26049       -2.05543
H         -5.18576       -0.68742       -0.66816
C         -4.31224        1.49522        1.05414
H         -4.93287        2.67609       -1.17421
H         -4.61271        1.05997       -1.79033
H         -2.05802        1.23703       -2.46461
H         -0.85102       -1.53058       -2.71518
H         -1.16176       -0.41707       -4.02149
H         -2.51747       -1.12051       -3.15074
H         -0.14061        2.77550       -3.35888
H          2.58809        2.63552       -3.39752
Pd        -0.49439       -0.24713        1.17982
H          3.34456        0.47051       -1.88529
C         -2.38143        2.79719        0.17198
H         -3.52339        2.39661       -2.16464
H         -3.80046        1.19479        1.96576
H         -4.81022        2.44323        1.26254
H         -5.09357        0.77084        0.83219
H         -1.61286        2.86482       -0.59935
H         -2.91156        3.75113        0.20467
H         -1.89541        2.65918        1.13666
H         -4.08947       -2.62400        1.48800
H         -5.01980       -2.40905       -0.96002
H         -1.43628       -2.67577        0.01845
H         -2.87163       -3.61910       -0.35547
H         -2.11620       -2.66459       -1.61416
C          2.77251       -1.24189        0.39622
C          3.22516       -2.24413        1.21798
C          4.54896       -1.94482        1.53958
C          4.85224       -0.77028        0.89677
O          3.77096       -0.32850        0.19073
H          2.65499       -3.08958        1.56537
H          5.20369       -2.52058        2.17316
H          5.80395       -0.25487        0.93574
C          0.73789       -2.74174       -1.04771
C          0.65880       -3.91072       -0.33134
C          0.36680       -4.92833       -1.24055
C          0.28087       -4.33645       -2.47675
O          0.50323       -2.99295       -2.37202
H          0.77829       -4.01212        0.73532
H          0.23377       -5.97400       -1.01597
H          0.06603       -4.84565       -3.40807
Fe         1.31070        2.13170       -0.90846
C          2.97401        2.80268        0.05420
C          2.14808        2.00236        0.93726
C          0.85322        2.64078        1.03821
C          0.86746        3.83368        0.21353
C          2.17743        3.92755       -0.40413
H          4.01299        2.59397       -0.21166
H          2.44807        1.08618        1.44981
H          0.04481        2.30651        1.69037
H          0.05489        4.55524        0.10720
H          2.51765        4.72558       -1.06790
