111
-148.54725107
P         -2.08853        2.26058        1.35756
P          0.11046        0.14473        0.48030
C         -1.05242        1.47602        2.61351
C         -0.13421        0.52338        2.23105
C         -2.12240        4.10013        1.52893
C         -1.69919        4.75323        0.23110
C         -1.19794        1.80031        3.94686
H         -1.90228        2.56361        4.23489
C         -0.43733        1.14720        4.90114
H         -0.55148        1.39762        5.94320
C          0.46065        0.16908        4.51962
H          1.04633       -0.34675        5.26265
C          0.61148       -0.14450        3.18075
H          1.30549       -0.90921        2.86800
Pd        -1.50448        1.36281       -0.68545
Cl        -3.30581        2.31381       -1.61947
Cl        -0.82597        0.24968       -2.51986
C         -3.58402        4.39114        1.92918
C         -3.89484        1.87876        1.53321
H         -0.69038        4.44773       -0.05778
H         -2.37336        4.46792       -0.57889
H         -1.71484        5.84327        0.30616
H         -3.88819        5.36664        1.52252
H         -3.66058        4.48949        3.02200
H         -4.16668        1.25764        0.66861
C         -4.54910        3.27246        1.44503
C         -4.19540        1.14383        2.82195
H         -1.42658        4.35947        2.33848
H         -5.47948        3.28071        2.03143
H         -4.85007        3.47713        0.40701
H         -5.24899        0.86200        2.88670
H         -3.59552        0.23592        2.91003
H         -3.97178        1.77138        3.68580
C         -1.22924       -4.13547       -0.32237
C         -1.89352       -3.34271        0.64760
C         -1.43043       -2.05682        0.87599
C         -0.37816       -1.54712        0.15921
C          0.20301       -2.27500       -0.84544
C         -0.23774       -3.55144       -1.15185
O         -1.54109       -5.51684       -0.43293
C         -3.08672       -3.87862        1.45302
H         -1.88411       -1.43109        1.62541
H          1.00147       -1.82479       -1.40692
C          0.34190       -4.25527       -2.38953
C          4.39039        1.06116       -0.84830
C          4.03352        1.19000        0.51783
C          2.73474        0.88379        0.88805
C          1.78736        0.53990       -0.04236
C          2.10451        0.53595       -1.37569
C          3.38598        0.81365       -1.81709
O          5.74995        1.15898       -1.24875
C          5.02946        1.63972        1.59934
H          2.44476        0.91874        1.92198
H          1.31825        0.32865       -2.07750
C          3.68048        0.82617       -3.32561
C         -3.98206       -4.76462        0.56811
C         -2.57218       -4.68206        2.65668
C         -3.96438       -2.72125        1.97882
C         -0.65767       -5.26663       -2.97982
C          0.63557       -3.22179       -3.50174
C          1.65234       -4.96038       -2.00969
C         -0.66671       -6.36690        0.29837
H         -3.44602       -5.64513        0.22110
H         -4.85972       -5.10636        1.11613
H         -4.32187       -4.21285       -0.30772
H         -1.93716       -4.06302        3.29009
H         -3.39960       -5.04956        3.26316
H         -1.98681       -5.53972        2.33557
H         -4.87751       -3.10359        2.43444
H         -3.44407       -2.14393        2.74160
H         -4.25043       -2.04985        1.16942
H         -0.86453       -6.07583       -2.28470
H         -1.60341       -4.77812       -3.21218
H         -0.27094       -5.71069       -3.89672
H         -0.24524       -2.61360       -3.70619
H          1.45142       -2.55572       -3.22848
H          0.92371       -3.71857       -4.42781
H          2.08644       -5.46772       -2.87087
H          2.38269       -4.24182       -1.63826
H          1.49047       -5.69991       -1.22872
H         -1.25572       -7.04819        0.91250
H         -0.06603       -6.96222       -0.38842
H         -0.00887       -5.77645        0.93736
C          6.46475       -0.06917       -1.19326
C          6.07806        2.60812        1.02223
C          4.29863        2.39638        2.73273
C          5.71875        0.40588        2.20143
C          4.19533       -0.55465       -3.75908
C          2.40341        1.14624       -4.13542
C          4.71830        1.91000       -3.66896
H          5.59284        3.46598        0.55786
H          6.74337        2.97619        1.80286
H          6.69325        2.12539        0.26740
H          5.01354        2.83063        3.43127
H          3.69126        3.20615        2.32921
H          3.65171        1.73626        3.30863
H          6.25692       -0.15635        1.44225
H          6.43015        0.69454        2.97478
H          4.98551       -0.26377        2.65041
H          4.38224       -0.58225       -4.83229
H          5.12258       -0.80747       -3.25186
H          3.46696       -1.32933       -3.52314
H          1.93541        2.06294       -3.77776
H          2.63822        1.28095       -5.19093
H          1.67391        0.34009       -4.07122
H          5.67422        1.70743       -3.19166
H          4.37709        2.88838       -3.33232
H          4.89024        1.96161       -4.74376
H          7.26570        0.00335       -0.45804
H          5.79597       -0.88763       -0.92384
H          6.91558       -0.27075       -2.16491
