171
-217.84833316
P         -1.56896        0.35391       -0.31483
P          1.60182       -0.47667       -0.25254
C         -0.82977        1.25245       -1.68167
C          0.87155       -1.46863       -1.56557
C         -0.07390        0.58438       -2.63747
C          0.52937        1.33142       -3.66762
C          0.33357        2.70204       -3.71248
C         -0.43196        3.34325       -2.76137
C         -1.00914        2.61240       -1.74123
C          1.04196       -2.83049       -1.50141
C          0.43895       -3.65373       -2.43143
C         -0.35102       -3.10286       -3.41753
C         -0.53887       -1.73334       -3.50027
C          0.09659       -0.89199       -2.56658
Cl         1.54329        0.11790        2.95501
Cl        -1.65666       -0.52833        2.86914
C         -1.41782       -1.18579       -4.56988
C          1.34968        0.67070       -4.71983
H         -0.58095        4.40921       -2.81500
H         -1.60501        3.10280       -0.98811
H          1.64882       -3.25466       -0.71826
H          0.57980       -4.72103       -2.38063
H          0.79001        3.26886       -4.50635
H         -0.83878       -3.74046       -4.13558
C         -3.97455       -3.24196       -1.63228
C         -2.99362       -3.40827       -0.66301
C         -2.27062       -2.28818       -0.27393
C         -2.50519       -1.07107       -0.86288
C         -3.45919       -0.92839       -1.84090
C         -4.22457       -2.01814       -2.24054
H         -4.57611       -4.08844       -1.90729
H         -1.52356       -2.35338        0.49769
H         -3.60265        0.04229       -2.28425
C         -4.24550        3.13183        2.08244
C         -4.82954        2.22739        1.20531
C         -3.98943        1.38492        0.48901
C         -2.62666        1.46321        0.63676
C         -2.06790        2.36793        1.50642
C         -2.87118        3.20580        2.26928
H         -4.88156        3.79695        2.63658
H         -4.39508        0.65432       -0.18669
H         -0.99706        2.40408        1.60040
C          4.62380       -2.86353        2.14387
C          3.27851       -3.19119        2.25664
C          2.36731       -2.46430        1.50078
C          2.79517       -1.45166        0.67796
C          4.12883       -1.13969        0.58299
C          5.07520       -1.84540        1.31413
H          5.34015       -3.40692        2.73225
H          1.31179       -2.66392        1.56942
H          4.42478       -0.32719       -0.05576
C          3.64094        3.36581       -1.49831
C          2.71050        3.40060       -0.46701
C          2.07884        2.21265       -0.12550
C          2.36669        1.05014       -0.79643
C          3.29106        1.03061       -1.81210
C          3.95439        2.19589       -2.17972
H          4.15358        4.26841       -1.77266
H          1.37104        2.18836        0.68514
H          3.49896        0.09481       -2.30231
Pd        -0.03356       -0.12646        1.37556
C         -2.55474       -5.83854       -1.12975
C         -2.76510       -4.78504       -0.02545
C         -3.99514       -5.15638        0.82060
C         -1.52018       -4.78493        0.88285
H         -3.43735       -5.93891       -1.75987
H         -1.71665       -5.56335       -1.76900
H         -2.34319       -6.81712       -0.69913
H         -4.89438       -5.20257        0.20708
H         -3.86298       -6.12749        1.29729
H         -4.16152       -4.41534        1.60227
H         -1.33950       -5.77870        1.29225
H         -0.63272       -4.48825        0.32439
H         -1.64501       -4.10229        1.72308
C         -6.70795       -2.07303       -2.52416
C         -5.36766       -1.88835       -3.25818
C         -5.22901       -2.96772       -4.34957
C         -5.36612       -0.50586       -3.93985
H         -6.82671       -1.32215       -1.74384
H         -7.54734       -1.98003       -3.21304
H         -6.76602       -3.05432       -2.05414
H         -4.26984       -2.88736       -4.85875
H         -5.30259       -3.97071       -3.93169
H         -6.01471       -2.86536       -5.09797
H         -4.41997       -0.31874       -4.44661
H         -6.15936       -0.44115       -4.68449
H         -5.53260        0.29110       -3.21574
C         -6.86647        3.53935        0.55899
C         -6.35701        2.17576        1.06015
C         -6.98662        1.85460        2.42811
C         -6.79521        1.09135        0.05620
H         -7.94842        3.52757        0.42828
H         -6.62431        4.33544        1.26209
H         -6.41310        3.79035       -0.39982
H         -8.07177        1.78756        2.35226
H         -6.61481        0.90313        2.80786
H         -6.75093        2.62297        3.16340
H         -7.88096        1.06314       -0.03459
H         -6.38683        1.28723       -0.93495
H         -6.46532        0.10390        0.37859
C         -2.39523        5.62099        2.71181
C         -2.27895        4.19737        3.28115
C         -0.79579        3.88989        3.56866
C         -3.04555        4.10467        4.61540
H         -1.97500        6.35353        3.40069
H         -1.86227        5.70186        1.76465
H         -3.43695        5.88545        2.53191
H         -0.66884        2.86233        3.90945
H         -0.18488        4.03587        2.68050
H         -0.40511        4.54951        4.34325
H         -2.59716        4.75394        5.36722
H         -4.08637        4.40447        4.50320
H         -3.02746        3.08419        4.99759
C          3.55632       -5.60548        2.88937
C          2.83649       -4.28869        3.23433
C          1.31689       -4.53315        3.16295
C          3.19439       -3.85629        4.66760
H          3.23844       -6.40883        3.55377
H          3.33575       -5.90713        1.86553
H          4.63680       -5.50501        2.98365
H          0.76034       -3.63531        3.43131
H          1.02117       -4.83930        2.16028
H          1.01812       -5.32314        3.85173
H          2.87660       -4.60509        5.39285
H          4.26863       -3.71492        4.78080
H          2.70542       -2.91456        4.91653
C          6.85591       -0.37024        0.25123
C          6.57233       -1.51265        1.24716
C          7.35240       -2.75967        0.79208
C          7.05582       -1.07546        2.64182
H          6.34376        0.54512        0.54741
H          7.92257       -0.15077        0.20700
H          6.53222       -0.63823       -0.75429
H          7.00379       -3.09606       -0.18421
H          8.41838       -2.54619        0.71485
H          7.22804       -3.58345        1.49391
H          8.11314       -0.81174        2.62374
H          6.49617       -0.20633        2.98706
H          6.92259       -1.87091        3.37411
C          2.67855        4.43662        1.81378
C          2.38661        4.67779        0.32031
C          0.90085        5.02866        0.12693
C          3.23449        5.87382       -0.15324
H          3.72960        4.19128        1.96432
H          2.45040        5.32326        2.40501
H          2.08771        3.61113        2.20768
H          0.25751        4.20393        0.42805
H          0.62547        5.90441        0.71419
H          0.69241        5.24663       -0.91970
H          3.04518        6.09816       -1.20282
H          2.99600        6.76794        0.42270
H          4.29858        5.67433       -0.02790
C          4.67489        3.23033       -4.35330
C          5.04842        2.21509       -3.25703
C          5.23166        0.83051       -3.90865
C          6.38432        2.62482       -2.60916
H          3.71204        2.98437       -4.79856
H          4.60696        4.24076       -3.95217
H          5.42129        3.23830       -5.14742
H          5.53277        0.08664       -3.17136
H          4.31145        0.49218       -4.38258
H          6.00477        0.86385       -4.67618
H          6.32294        3.62042       -2.17122
H          6.65786        1.92816       -1.81723
H          7.18864        2.63255       -3.34454
H         -0.93725       -1.25968       -5.54639
H          1.77403       -0.26810       -4.36112
H         -1.66482       -0.13866       -4.39067
H         -2.35497       -1.73988       -4.61724
H          2.17564        1.30996       -5.03130
H          0.74852        0.45472       -5.60383
