59
-75.79825069
Cl         1.38461        0.51533        2.40971
P          1.46584        0.01712       -0.83439
P         -1.74221       -0.20194       -0.79495
C          0.44149        0.33740       -2.34153
H          0.13523        1.38589       -2.34336
H          1.06348        0.17709       -3.22778
C         -0.76159       -0.56187       -2.31612
H         -0.45816       -1.61163       -2.29224
H         -1.40677       -0.42323       -3.18923
C          2.61081       -1.39732       -1.18987
H          2.36119       -1.71249       -2.21252
C          2.70290        1.34699       -0.46478
H          2.40340        1.80889        0.48431
C         -3.08736       -1.43285       -0.47701
H         -3.16716       -1.51766        0.61385
C         -2.77274        1.32277       -1.04374
H         -2.60064        1.64349       -2.07821
C          4.00718       -0.74457       -1.15725
H          4.74475       -1.46577       -0.77682
H          4.33341       -0.50914       -2.18116
C          4.01760        0.55664       -0.30840
H          4.87248        1.18820       -0.58733
H          4.17467        0.30392        0.75029
C         -4.32735       -0.72294       -1.04370
H         -4.41862       -0.96673       -2.11147
H         -5.24215       -1.11261       -0.57088
C         -4.21879        0.81540       -0.86546
H         -4.56327        1.08550        0.14225
H         -4.89689        1.33878       -1.55623
C          2.43955       -2.58040       -0.23823
H          3.04118       -3.42361       -0.60590
H          1.39982       -2.92709       -0.28878
C          2.73757        2.40524       -1.56286
H          3.05728        1.93068       -2.49997
H          1.71660        2.76152       -1.75244
C         -2.80615       -2.80172       -1.08296
H         -3.71877       -3.41210       -1.03590
H         -2.59569       -2.68091       -2.15343
C         -2.40816        2.44537       -0.07452
H         -3.20626        3.20078       -0.09219
H         -2.41570        2.04309        0.94710
C          2.81197       -2.28932        1.20626
H          3.86706       -2.03061        1.30620
H          2.62656       -3.14680        1.85730
H          2.23827       -1.45295        1.60223
C          3.63316        3.59155       -1.23280
H          3.61021        4.35126       -2.01755
H          4.67378        3.29012       -1.10533
H          3.32168        4.07163       -0.30314
C         -1.66163       -3.52177       -0.38844
H         -1.43283       -4.48209       -0.85599
H         -1.89400       -3.71221        0.66114
H         -0.75349       -2.91964       -0.40579
C         -1.07223        3.10841       -0.37283
H         -1.05413        3.52518       -1.38158
H         -0.85563        3.92250        0.32260
H         -0.24836        2.39885       -0.30184
Cl        -1.77878       -0.21218        2.36402
Pd        -0.12882       -0.04204        0.84878
