111
-148.55846227
P         -2.36974        2.50224       -0.02900
P         -0.14999        0.29826        0.46511
C         -1.76340        2.20139        1.64866
C         -0.83378        1.20828        1.86409
C         -2.29009        4.29211       -0.48119
C         -1.21314        4.52690       -1.51814
C         -2.24966        2.93536        2.71127
H         -2.97296        3.71446        2.53233
C         -1.80846        2.66217        3.99466
H         -2.18783        3.23338        4.82616
C         -0.88849        1.65402        4.21124
H         -0.54882        1.43760        5.21073
C         -0.40035        0.92379        3.14238
H          0.31798        0.13323        3.29457
Pd        -1.31442        0.99468       -1.42018
Cl        -2.72564        1.61806       -3.04826
Cl        -0.28606       -0.61745       -2.60150
C         -3.72019        4.59620       -0.96693
C         -4.19264        2.20737       -0.18135
H         -1.41107        3.94122       -2.41821
H         -1.16272        5.57829       -1.81129
H         -0.22997        4.23027       -1.14404
H         -3.74864        4.49595       -2.06069
H         -3.98069        5.64531       -0.76013
H         -4.32894        1.64059       -1.11188
C         -4.76163        3.62970       -0.33502
C         -4.73943        1.43132        0.99827
H         -2.07072        4.83826        0.44555
H         -5.05517        4.00315        0.65561
H         -5.68842        3.60859       -0.92831
H         -4.61102        1.99045        1.92621
H         -5.80634        1.22695        0.88261
H         -4.22114        0.47769        1.11936
C         -0.93474       -4.17820        0.66391
C          0.29405       -3.65660        1.14999
C          0.50115       -2.28961        1.06947
C         -0.48289       -1.45106        0.61524
C         -1.72007       -1.93478        0.27889
C         -1.99150       -3.29239        0.32266
O         -1.07542       -5.57198        0.44073
C          1.40983       -4.51411        1.77094
H          1.45063       -1.86413        1.34795
H         -2.47377       -1.23838       -0.04748
C         -3.41781       -3.75137       -0.02324
C          4.33911        0.97146       -0.02589
C          3.62722        0.16507       -0.94915
C          2.26010        0.03251       -0.78222
C          1.61152        0.59501        0.28508
C          2.31215        1.29656        1.23182
C          3.68158        1.47402        1.12588
O          5.69973        1.29872       -0.26955
C          4.30509       -0.54446       -2.13184
H          1.66820       -0.50275       -1.50279
H          1.77072        1.71085        2.06273
C          4.42851        2.21659        2.24561
C          2.60119       -4.58416        0.80094
C          1.87413       -3.86597        3.09406
C          0.93726       -5.93840        2.11011
C         -4.44137       -2.85310        0.70591
C         -3.63691       -3.62837       -1.54056
C         -3.69089       -5.19808        0.42331
C         -0.63886       -5.96675       -0.84939
H          2.99243       -3.58886        0.59305
H          3.41072       -5.18064        1.22077
H          2.31102       -5.03201       -0.14763
H          1.03300       -3.73793        3.77482
H          2.61776       -4.48812        3.59147
H          2.32589       -2.88905        2.92989
H          0.68919       -6.49683        1.21077
H          1.71141       -6.49370        2.63918
H          0.04898       -5.90860        2.74014
H         -4.40994       -1.82816        0.34120
H         -5.45672       -3.21825        0.55345
H         -4.24658       -2.83829        1.77790
H         -2.94673       -4.26413       -2.09126
H         -4.65121       -3.91887       -1.81274
H         -3.47984       -2.60307       -1.87443
H         -4.73212       -5.47165        0.25433
H         -3.07270       -5.90381       -0.12645
H         -3.47458       -5.32005        1.48405
H          0.40874       -5.70385       -0.98680
H         -0.75755       -7.04531       -0.95503
H         -1.22842       -5.46325       -1.61351
C          5.88530        2.48565       -1.03057
C          3.53733       -1.83281       -2.50884
C          4.31313        0.39159       -3.34971
C          5.74122       -0.96729       -1.77394
C          4.46937        3.71761        1.92168
C          3.71161        2.02567        3.60207
C          5.85794        1.67030        2.41477
H          3.39737       -2.47051       -1.63681
H          2.55866       -1.61073       -2.93151
H          4.08547       -2.40495       -3.25693
H          4.86120        1.30699       -3.14073
H          4.77778       -0.09033       -4.20949
H          3.29664        0.66987       -3.62712
H          6.36984       -0.10434       -1.56914
H          5.74458       -1.60080       -0.88751
H          6.20097       -1.52362       -2.59039
H          4.98671        3.90501        0.98396
H          3.46048        4.11917        1.82939
H          4.98332        4.27251        2.70617
H          3.54963        0.96822        3.80979
H          4.30740        2.43875        4.41572
H          2.74773        2.53212        3.62416
H          5.83876        0.59731        2.60275
H          6.36544        2.15221        3.25006
H          6.45668        1.84190        1.52378
H          4.92206        2.93033       -1.28369
H          6.47606        3.19925       -0.45647
H          6.43013        2.25227       -1.94516
