111
-148.55340010
P         -2.61615        1.87539        0.98449
P          0.22142        0.54555        0.40204
C         -1.45339        1.56662        2.34530
C         -0.20217        1.05188        2.08125
C         -3.69275        3.33135        1.37929
C         -3.66012        4.36998        0.28039
C         -1.82055        1.84189        3.64760
H         -2.80648        2.22430        3.85459
C         -0.92925        1.61005        4.68095
H         -1.21694        1.82524        5.69713
C          0.32645        1.10131        4.41201
H          1.01989        0.91791        5.21620
C          0.68839        0.81630        3.10810
H          1.65766        0.40026        2.88432
Pd        -1.31989        1.68284       -0.92180
Cl        -3.02323        2.49953       -2.11896
Cl         0.08341        1.25482       -2.62499
C         -5.07926        2.68622        1.58760
C         -3.89630        0.55301        0.79382
H         -2.63979        4.70376        0.07815
H         -4.06295        3.95994       -0.64648
H         -4.25951        5.24641        0.53781
H         -5.86304        3.39484        1.28236
H         -5.24936        2.50097        2.65841
H         -3.72565        0.08347       -0.18488
C         -5.21773        1.34842        0.80698
C         -3.78308       -0.47346        1.89952
H         -3.31100        3.76350        2.31382
H         -6.01625        0.72774        1.23913
H         -5.53328        1.56221       -0.22493
H         -4.53283       -1.26138        1.79527
H         -2.79806       -0.94394        1.90095
H         -3.92521       -0.00585        2.87560
C         -1.32371       -3.70614       -0.17204
C         -0.95281       -3.25803        1.12148
C         -0.46095       -1.97067        1.25487
C         -0.38020       -1.12910        0.17681
C         -0.81049       -1.53188       -1.05877
C         -1.33872       -2.79461       -1.25850
O         -1.64719       -5.07301       -0.38261
C         -1.05032       -4.15749        2.36347
H         -0.13284       -1.60367        2.21134
H         -0.71959       -0.83771       -1.87521
C         -1.91448       -3.14554       -2.63938
C          4.69258        0.59333       -0.46012
C          4.12774       -0.44771        0.32029
C          2.76039       -0.43279        0.53972
C          1.98226        0.60326        0.09254
C          2.54031        1.66744       -0.56485
C          3.89882        1.70827       -0.83302
O          6.04009        0.50099       -0.89959
C          4.96217       -1.59921        0.90339
H          2.27762       -1.24617        1.05382
H          1.88900        2.45861       -0.89351
C          4.47818        2.92723       -1.56771
C         -1.23166       -3.31345        3.64587
C         -2.26645       -5.09632        2.26754
C          0.24298       -4.97540        2.49913
C         -3.05679       -4.17062       -2.52167
C         -2.51058       -1.88651       -3.31212
C         -0.79396       -3.69676       -3.53353
C         -0.54303       -5.87460       -0.78332
H         -2.07847       -2.63488        3.54972
H         -1.41607       -3.95524        4.50709
H         -0.34293       -2.72565        3.87110
H         -2.37401       -5.69235        3.17342
H         -3.18275       -4.52378        2.12707
H         -2.17094       -5.78402        1.43075
H          0.20923       -5.61642        3.37971
H          0.40221       -5.60809        1.62954
H          1.10666       -4.31737        2.59295
H         -2.70208       -5.11755       -2.12303
H         -3.83666       -3.80030       -1.85701
H         -3.50623       -4.37002       -3.49413
H         -3.03626       -2.14987       -4.22950
H         -3.22082       -1.39226       -2.64976
H         -1.73891       -1.16745       -3.58238
H         -1.17189       -3.94430       -4.52513
H          0.00207       -2.96159       -3.64949
H         -0.35439       -4.59525       -3.10691
H         -0.41996       -6.70052       -0.08284
H         -0.73164       -6.29285       -1.77178
H          0.37052       -5.27913       -0.80843
C          6.19961       -0.17782       -2.13917
C          4.33675       -2.11085        2.22172
C          5.00091       -2.76001       -0.10203
C          6.39177       -1.13588        1.23743
C          4.41187        2.68130       -3.08286
C          3.66535        4.20061       -1.24102
C          5.93031        3.19972       -1.13538
H          4.17731       -1.28916        2.91951
H          3.38207       -2.60615        2.05088
H          4.99096       -2.83691        2.70387
H          3.99367       -3.11534       -0.31874
H          5.45239       -2.45293       -1.04230
H          5.57723       -3.59740        0.29053
H          6.93033       -0.83236        0.34333
H          6.36994       -0.28566        1.91836
H          6.96238       -1.93478        1.71035
H          4.99080        1.80563       -3.36596
H          3.38279        2.51398       -3.40019
H          4.80152        3.53593       -3.63520
H          4.14815        5.08467       -1.65688
H          2.66216        4.15763       -1.66244
H          3.58085        4.34102       -0.16374
H          6.58708        2.37769       -1.40851
H          5.99084        3.33092       -0.05553
H          6.31751        4.10144       -1.60914
H          6.84282       -1.04672       -2.00112
H          5.23095       -0.49916       -2.52409
H          6.67547        0.48589       -2.86090
