111
-148.55130691
P         -2.53792        2.10635        1.03636
P          0.09906        0.41041        0.54109
C         -1.44956        1.68511        2.42940
C         -0.28483        0.98506        2.20158
C         -3.38406        3.72466        1.35329
C         -3.19830        4.69042        0.20424
C         -1.78628        2.05148        3.71737
H         -2.70617        2.58287        3.89764
C         -0.94976        1.72212        4.77009
H         -1.21324        2.00860        5.77516
C          0.22004        1.02536        4.53548
H          0.87002        0.76719        5.35527
C          0.55183        0.65169        3.24564
H          1.45307        0.09364        3.04416
Pd        -1.30826        1.58528       -0.86003
Cl        -2.90613        2.58585       -2.07087
Cl        -0.01176        1.03104       -2.61041
C         -4.85077        3.30781        1.59011
C         -4.00450        0.98549        0.90386
H         -3.65723        5.65919        0.41532
H         -2.13980        4.85540       -0.00981
H         -3.66139        4.30064       -0.70299
H         -5.51995        4.11000        1.24623
H         -5.04214        3.20578        2.66844
H         -3.91219        0.45223       -0.05244
C         -5.19286        1.96834        0.87896
C         -4.03559        0.00392        2.05497
H         -2.93708        4.13941        2.26671
H         -6.07072        1.49563        1.34310
H         -5.48257        2.17489       -0.16193
H         -3.12824       -0.60367        2.07911
H         -4.10386        0.53059        3.00868
H         -4.89273       -0.67016        1.98577
C         -1.11950       -3.93446       -0.05874
C         -1.11171       -3.39273        1.25274
C         -0.73861       -2.06875        1.41401
C         -0.45756       -1.27907        0.33028
C         -0.57267       -1.76861       -0.94325
C         -0.94131       -3.08112       -1.17730
O         -1.25964       -5.33502       -0.24820
C         -1.45371       -4.23155        2.49388
H         -0.64229       -1.63967        2.39548
H         -0.35291       -1.10164       -1.75868
C         -1.10087       -3.55872       -2.62848
C          4.46516        0.68394       -0.70632
C          3.91079       -0.56613       -0.33016
C          2.57886       -0.60321        0.04522
C          1.83166        0.54296        0.12301
C          2.39087        1.76651       -0.13418
C          3.71834        1.87556       -0.51650
O          5.74920        0.73815       -1.31087
C          4.70663       -1.88002       -0.37008
H          2.09572       -1.54052        0.26102
H          1.76482        2.63855       -0.05387
C          4.31026        3.27102       -0.76830
C         -0.17225       -4.88568        3.03220
C         -2.05916       -3.34448        3.60535
C         -2.50141       -5.30990        2.16250
C         -1.60302       -2.40415       -3.52631
C          0.26067       -4.03559       -3.15679
C         -2.13906       -4.69040       -2.73210
C         -0.02417       -6.03922       -0.27550
H          0.56516       -4.12813        3.29686
H         -0.38093       -5.47959        3.92168
H          0.27790       -5.54010        2.28958
H         -2.40230       -3.95363        4.44130
H         -1.33102       -2.63893        4.00252
H         -2.91381       -2.78281        3.23011
H         -2.79387       -5.86024        3.05640
H         -3.39550       -4.85732        1.73491
H         -2.11631       -6.02992        1.44469
H         -2.50270       -1.95224       -3.10952
H         -0.85163       -1.62460       -3.64153
H         -1.84232       -2.76673       -4.52561
H          0.18216       -4.37402       -4.18958
H          0.99136       -3.22783       -3.12090
H          0.64868       -4.85871       -2.56127
H         -2.29808       -4.98264       -3.76978
H         -1.81878       -5.57464       -2.18704
H         -3.09552       -4.37203       -2.31883
H          0.09405       -6.53600       -1.23827
H          0.80890       -5.35326       -0.11617
H         -0.02131       -6.80148        0.50351
C          5.72558        0.61811       -2.72788
C          4.18931       -2.86317        0.70555
C          4.53654       -2.53339       -1.75023
C          6.19769       -1.63696       -0.07509
C          5.81390        3.30544       -0.43970
C          4.07833        3.66159       -2.23596
C          3.62903        4.32408        0.13501
H          4.83171       -3.74129        0.76767
H          4.17322       -2.39023        1.68714
H          3.18502       -3.21876        0.47941
H          5.08272       -3.47461       -1.80700
H          3.48552       -2.74030       -1.95083
H          4.90196       -1.88398       -2.54209
H          6.32205       -1.13602        0.88436
H          6.74884       -2.57642       -0.04142
H          6.65726       -1.01367       -0.83789
H          6.37882        2.64663       -1.09433
H          6.21766        4.31082       -0.55671
H          5.98950        2.98664        0.58718
H          4.47188        4.65645       -2.44264
H          4.56323        2.96141       -2.91174
H          3.01398        3.66327       -2.47005
H          3.66257        4.01799        1.18029
H          2.58830        4.48212       -0.14372
H          4.13132        5.28765        0.05212
H          6.29869       -0.25772       -3.03148
H          4.69893        0.52241       -3.08382
H          6.18587        1.49802       -3.17704
