45
-71.81521471
C          2.35222        1.19836        2.43695
P          1.54777        0.84623        0.83881
P         -1.04506        0.17708       -0.89237
C         -0.43904       -0.29826       -2.54656
Cl         1.51426       -1.96115        2.20228
H          1.60271        1.46406        3.17693
H          0.62759       -0.10556       -2.61767
Cl        -1.31007       -2.66388        0.37160
C          0.48205        2.18534        0.26112
C         -0.62370        1.88986       -0.50756
C         -1.42425        2.90324       -0.99251
C         -1.11250        4.22110       -0.70792
C         -0.00071        4.51805        0.05630
C          0.80087        3.49855        0.53932
H         -2.28841        2.65556       -1.58819
H         -1.73669        5.01481       -1.08419
H          0.24492        5.54433        0.27457
H          1.67746        3.71991        1.12622
Pd         0.14523       -0.99206        0.71124
H         -0.95284        0.27829       -3.31045
H          3.05463        2.01987        2.32920
H         -0.61602       -1.35635       -2.71718
C         -5.48753       -0.53434       -0.22194
C         -4.90576       -0.95500       -1.40163
C         -3.55711       -0.73986       -1.62160
C         -2.80220       -0.10402       -0.66248
C         -3.37626        0.31367        0.51666
C         -4.72510        0.09965        0.73895
H         -6.53779       -0.70418       -0.04947
H         -5.50027       -1.45416       -2.14912
H         -3.09114       -1.07121       -2.53525
H         -2.76513        0.80373        1.25872
H         -5.17741        0.42458        1.66148
C          4.47205       -0.34021       -2.43049
C          4.29246       -1.15901       -1.33268
C          3.41053       -0.78632       -0.33528
C          2.72331        0.40067       -0.43878
C          2.89008        1.21564       -1.53459
C          3.77081        0.84547       -2.53488
H          5.15795       -0.62939       -3.20994
H          4.83160       -2.08886       -1.25575
H          3.22724       -1.42497        0.51404
H          2.32881        2.13336       -1.60473
H          3.90757        1.48082       -3.39446
H          2.88931        0.31854        2.77951
