111
-148.55529912
P         -2.16419        2.09134        1.44045
P          0.16778        0.13679        0.60271
C         -1.06283        1.42517        2.71028
C         -0.05473        0.56247        2.33989
C         -2.25662        3.93648        1.49858
C         -1.33877        4.56720        0.47346
C         -1.21914        1.77730        4.03526
H         -1.99825        2.46801        4.31402
C         -0.37021        1.24755        4.99172
H         -0.49204        1.51902        6.02761
C          0.63316        0.37302        4.61993
H          1.29408       -0.03915        5.36455
C          0.79339        0.03138        3.28871
H          1.57719       -0.64248        2.98079
Pd        -1.40904        1.34290       -0.60063
Cl        -3.20541        2.16758       -1.65406
Cl        -0.46360        0.56406       -2.48454
C         -3.75446        4.20398        1.26711
C         -3.95597        1.67438        1.67462
H         -0.29858        4.27897        0.64293
H         -1.60815        4.24985       -0.53573
H         -1.39766        5.65771        0.50209
H         -3.93124        4.30229        0.18692
H         -4.04344        5.17225        1.70379
H         -4.26890        1.19595        0.73702
C         -4.63176        3.05201        1.83241
C         -4.17600        0.74962        2.85436
H         -1.96670        4.22965        2.51606
H         -4.82199        3.23170        2.89925
H         -5.62358        3.04702        1.35596
H         -3.90062        1.24031        3.78891
H         -5.22351        0.45093        2.93817
H         -3.56976       -0.15400        2.77548
C         -1.34059       -4.06186       -0.32263
C         -2.14335       -3.15616        0.42143
C         -1.61969       -1.90711        0.71600
C         -0.39590       -1.52179        0.23249
C          0.31235       -2.33744       -0.61121
C         -0.14623       -3.60199       -0.93762
O         -1.68821       -5.43567       -0.38721
C         -3.58268       -3.45738        0.87239
H         -2.17312       -1.20845        1.31980
H          1.23247       -1.96995       -1.02956
C          0.65935       -4.42433       -1.95701
C          4.36353        1.02184       -0.93931
C          4.12146       -0.17977       -0.22608
C          2.83735       -0.42563        0.23108
C          1.83264        0.48807        0.04377
C          2.08747        1.69680       -0.54943
C          3.35163        2.01216       -1.01910
O          5.60859        1.21749       -1.59469
C          5.22012       -1.22658        0.01708
H          2.60068       -1.34663        0.73476
H          1.27438        2.39416       -0.65476
C          3.58975        3.40022       -1.63420
C         -3.62215       -3.58141        2.40449
C         -4.50277       -2.30118        0.42424
C         -4.14475       -4.74421        0.24346
C         -0.16699       -5.57846       -2.55068
C          1.08238       -3.51773       -3.13513
C          1.91874       -4.98733       -1.27896
C         -1.17097       -6.18227        0.70117
H         -3.26673       -2.66880        2.88124
H         -4.63687       -3.76937        2.75436
H         -2.99160       -4.40084        2.74584
H         -5.53949       -2.50064        0.69392
H         -4.22096       -1.35789        0.88594
H         -4.45459       -2.16962       -0.65633
H         -3.60820       -5.62223        0.59482
H         -5.19640       -4.87796        0.49591
H         -4.05658       -4.71144       -0.84192
H         -1.09635       -5.20460       -2.97895
H          0.38592       -6.09538       -3.33462
H         -0.42186       -6.31189       -1.78899
H          1.56295       -4.10035       -3.92062
H          0.21488       -3.02038       -3.56804
H          1.79007       -2.75110       -2.82423
H          1.66004       -5.67295       -0.47464
H          2.53780       -5.52829       -1.99423
H          2.51982       -4.18615       -0.85090
H         -0.08290       -6.14835        0.69299
H         -1.52823       -5.76684        1.64267
H         -1.49927       -7.21827        0.61492
C          5.62983        0.77936       -2.94755
C          6.58499       -0.54958        0.23763
C          4.91759       -2.05824        1.28416
C          5.29018       -2.18108       -1.18478
C          2.67463        4.45500       -0.97033
C          5.04036        3.86606       -1.41382
C          3.26661        3.35080       -3.13537
H          6.90508       -0.00543       -0.64763
H          6.53313        0.15809        1.06436
H          7.35476       -1.28555        0.46845
H          5.75637       -2.70983        1.52814
H          4.73845       -1.40925        2.14103
H          4.04656       -2.69763        1.14738
H          6.03955       -2.95595       -1.02517
H          4.32934       -2.66806       -1.34655
H          5.54764       -1.64960       -2.09712
H          2.93511        5.45882       -1.30514
H          1.62752        4.29687       -1.22388
H          2.77444        4.42764        0.11447
H          5.19015        4.87558       -1.79577
H          5.28601        3.86506       -0.35239
H          5.74888        3.21528       -1.91952
H          2.23017        3.05442       -3.29560
H          3.89775        2.63224       -3.65228
H          3.41511        4.32547       -3.59938
H          4.67891        0.31512       -3.21224
H          5.81669        1.62725       -3.60605
H          6.43776        0.06074       -3.08448
