87
-129.18270542
P         -1.52279       -0.15474       -0.25861
P          1.68359        0.43284        0.16977
C         -1.19393        1.07944       -1.52093
C          1.50826       -0.63911       -1.28035
C         -0.15555        0.86112       -2.41684
C          0.09986        1.82834       -3.40991
C         -0.70464        2.95407       -3.47617
C         -1.73545        3.14715       -2.58048
C         -1.97737        2.20429       -1.60104
C          2.22046       -1.81432       -1.22080
C          2.08576       -2.77075       -2.20771
C          1.21251       -2.55322       -3.25002
C          0.47477       -1.38506       -3.32914
C          0.63696       -0.39447       -2.34083
Cl         1.21227       -0.04494        3.36158
Cl        -1.46915       -1.68473        2.65652
H         -2.34890        4.03098       -2.64291
H         -2.78719        2.34122       -0.90416
H          2.88164       -1.99141       -0.38839
H          2.64770       -3.68870       -2.15278
H         -0.51323        3.68715       -4.24127
H          1.08617       -3.30349       -4.01214
C         -2.47994       -4.11651       -2.26316
C         -1.51590       -4.07947       -1.26498
C         -1.25500       -2.86630       -0.64021
C         -1.92118       -1.72625       -1.02485
C         -2.86773       -1.76806       -2.02134
C         -3.15295       -2.97093       -2.64055
H         -2.69908       -5.05399       -2.74518
C         -0.79538       -5.31200       -0.84581
H         -0.52018       -2.81646        0.14540
H         -3.37035       -0.85957       -2.31447
H         -3.89512       -3.01212       -3.42084
C         -4.98293        1.18745        2.38825
C         -3.85637        1.97792        2.27669
C         -2.80901        1.57474        1.47093
C         -2.89850        0.39117        0.77576
C         -4.01795       -0.39981        0.88931
C         -5.07625       -0.01680        1.70444
H         -5.80133        1.49982        3.01435
H         -3.79142        2.90671        2.81942
H         -1.92290        2.18057        1.37712
H         -4.06894       -1.33004        0.34973
C         -6.29364       -0.86607        1.81181
C          5.79260       -0.20626        2.02719
C          5.55625        0.89518        1.22868
C          4.30398        1.09095        0.67686
C          3.29879        0.18524        0.92540
C          3.53413       -0.91444        1.71801
C          4.78318       -1.12182        2.29026
H          6.76772       -0.36237        2.45626
H          6.34651        1.60191        1.03520
H          4.10521        1.94753        0.05355
H          2.73644       -1.61220        1.91259
C          5.03177       -2.31828        3.13972
C          0.86610        4.87498       -0.33743
C          0.35337        4.19472        0.74941
C          0.61892        2.84779        0.90393
C          1.37087        2.18858       -0.04120
C          1.90374        2.86796       -1.11134
C          1.66126        4.22749       -1.27297
H          0.65909        5.92399       -0.46402
H         -0.24411        4.71407        1.48069
H          0.27768        2.31385        1.77612
H          2.50080        2.33595       -1.83301
C          2.20949        4.96757       -2.44192
Pd        -0.03378       -0.38214        1.52760
C          1.21128        1.66500       -4.38747
C         -0.48778       -1.21596       -4.45366
H          1.77470        2.59276       -4.49552
H          1.91117        0.89079       -4.07099
H          0.82699        1.39140       -5.37081
H         -1.06430       -2.12880       -4.61029
H         -1.19785       -0.41227       -4.25639
H          0.03496       -0.98620       -5.38282
H         -1.29861       -5.78649       -0.00229
H         -0.74433       -6.03604       -1.66021
H          0.22727       -5.08280       -0.54223
H         -7.01051       -0.61690        1.02818
H         -6.04315       -1.92357        1.71579
H         -6.78591       -0.72931        2.77567
H          5.25849       -3.19020        2.52456
H          5.87139       -2.15529        3.81682
H          4.15699       -2.55292        3.74803
H          1.44095        5.11750       -3.20124
H          2.58329        5.94801       -2.14337
H          3.03597        4.42421       -2.90213
