105
-153.06682470
Cl         0.01276        1.92800        3.05620
Pd        -0.46101        1.28740        0.94542
P         -1.12773        0.49644       -1.16828
N         -0.73741       -1.02119       -1.97330
C          0.18873       -2.00272       -1.62167
C          0.32689       -2.47742       -0.29274
C          1.29206       -3.46677       -0.01114
C          1.41283       -3.98856        1.40113
C          2.23775       -5.27752        1.53952
C          3.51066       -5.20640        0.69142
C          3.16094       -5.01459       -0.79160
C          2.09615       -3.97471       -1.03550
C          1.90524       -3.52833       -2.33701
C          0.96830       -2.57206       -2.62764
H          0.84373       -2.22512       -3.63859
H          2.51526       -3.93926       -3.12360
H          4.05852       -4.74171       -1.36142
H          4.12746       -4.36530        1.03233
H          2.48245       -5.47422        2.59291
H          1.85990       -3.20240        2.02023
C         -0.67160       -2.11745        0.74251
C         -0.24738       -1.53382        1.96759
C         -1.18182       -1.39495        2.99812
C         -2.48229       -1.79378        2.83148
C         -2.91794       -2.35838        1.63895
C         -4.35512       -2.81432        1.55409
C         -4.81647       -3.19631        0.13845
C         -3.73501       -4.00057       -0.58722
C         -2.43762       -3.18669       -0.69844
C         -2.01176       -2.52317        0.58908
H         -1.62277       -3.82832       -1.05628
H         -4.08467       -4.31898       -1.57954
H         -5.03431       -2.28704       -0.43507
H         -4.99999       -2.02733        1.96469
H         -3.18668       -1.67329        3.63713
H         -0.87000       -0.94125        3.92250
N          1.05252       -1.04022        2.15542
P          1.61970        0.19094        1.02861
C          2.61366       -0.34372       -0.35192
C          2.38207        0.22004       -1.58172
C          3.18775       -0.11988       -2.65281
C          4.23951       -1.01179       -2.48828
C          4.46441       -1.55785       -1.23096
C          3.65648       -1.21702       -0.16092
H          3.83105       -1.62713        0.82113
H          5.27336       -2.25518       -1.09581
C          5.08031       -1.41316       -3.64939
H          2.99948        0.30218       -3.62502
H          1.56500        0.91164       -1.69779
C          2.55947        1.48754        1.84044
C          3.26814        1.21802        2.98645
C          3.99250        2.22584        3.59713
C          4.01886        3.50471        3.05679
C          3.29746        3.75489        1.89720
C          2.57460        2.74604        1.28671
H          2.01653        2.93622        0.38290
H          3.30163        4.74611        1.47704
C          4.77166        4.59819        3.73139
H          4.54064        2.02479        4.50170
H          3.25714        0.22184        3.39801
H          1.20909       -0.61884        3.06188
H         -1.00976       -0.93629       -2.94453
C         -0.63676        1.86257       -2.23293
C         -0.89019        3.15691       -1.84697
C         -0.49833        4.21038       -2.65032
C          0.14620        3.97529       -3.85679
C          0.39707        2.66290       -4.23278
C          0.00096        1.61223       -3.42580
H          0.20633        0.59605       -3.71733
H          0.90883        2.46900       -5.16001
C          0.59793        5.10910       -4.71000
H         -0.68945        5.22428       -2.34271
H         -1.39674        3.33674       -0.91371
C         -2.92278        0.52713       -1.10090
C         -3.60770        0.78301       -2.26516
C         -4.99122        0.80448       -2.26061
C         -5.69716        0.56828       -1.08895
C         -4.98734        0.32142        0.07744
C         -3.60548        0.28600        0.06605
H         -3.05250        0.08714        0.96982
H         -5.52440        0.16127        0.99651
C         -7.18510        0.61829       -1.07179
H         -5.53104        1.01089       -3.16892
H         -3.05667        0.96928       -3.17382
Cl        -2.27509        2.62708        0.98233
H          2.82200       -5.96663       -1.21726
H          1.63293       -6.13306        1.21367
H          4.12838       -6.10394        0.83696
H          0.40509       -4.14390        1.80663
H         -3.53703       -4.92646       -0.03274
H         -2.55912       -2.41009       -1.46220
H         -4.48364       -3.67260        2.22447
H         -5.76220       -3.75549        0.17191
H          4.65407       -2.28179       -4.15323
H          5.15675       -0.60505       -4.37821
H          6.09207       -1.67047       -3.33289
H          5.13839        5.32804        3.00826
H          4.13491        5.12227        4.44536
H          5.63409        4.20717        4.27301
H         -0.05644        5.97422       -4.59407
H          1.61053        5.41478       -4.44321
H          0.59663        4.83270       -5.76531
H         -7.59987        0.36663       -2.04886
H         -7.59324       -0.08804       -0.34737
H         -7.53546        1.61593       -0.80381
