111
-148.54811908
P         -2.65576        1.88470        0.11099
P          0.13933        0.43554        0.38414
C         -1.82339        1.83812        1.72165
C         -0.57515        1.26291        1.81980
C         -3.63058        3.44658       -0.09218
C         -2.88812        4.49971       -0.88497
C         -2.42498        2.36849        2.84548
H         -3.41092        2.79648        2.77273
C         -1.76786        2.32999        4.06317
H         -2.23753        2.74438        4.94031
C         -0.51405        1.75768        4.15706
H         -0.00445        1.72328        5.10592
C          0.08127        1.21586        3.03246
H          1.04842        0.74168        3.09385
Pd        -1.08784        1.18823       -1.44269
Cl        -2.18500        2.28192       -3.05612
Cl         0.52405        0.31173       -2.74490
C         -4.93380        2.93835       -0.73359
C         -4.00666        0.63198       -0.09514
H         -2.67668        4.15167       -1.89562
H         -3.47196        5.41886       -0.97197
H         -1.93251        4.74716       -0.41709
H         -4.81408        2.94232       -1.82595
H         -5.76256        3.63156       -0.52275
H         -3.78828        0.10114       -1.03154
C         -5.27252        1.49789       -0.25227
C         -4.04534       -0.33151        1.07111
H         -3.83511        3.81437        0.92104
H         -5.78686        1.54985        0.71706
H         -5.98502        1.01371       -0.93702
H         -4.19570        0.20371        2.01053
H         -4.85718       -1.05499        0.96599
H         -3.10893       -0.88607        1.15682
C         -1.40110       -3.85249        0.50980
C         -0.91361       -3.31931       -0.71051
C         -0.43869       -2.02007       -0.71154
C         -0.36232       -1.28784        0.44347
C         -0.72202       -1.84258        1.64416
C         -1.21080       -3.13604        1.71894
O         -2.12420       -5.07477        0.51514
C         -0.94727       -4.09764       -2.03450
H         -0.14875       -1.54370       -1.63048
H         -0.64866       -1.23471        2.52837
C         -1.57878       -3.71621        3.09319
C          4.65781        0.95404        0.08817
C          3.86909        1.97220        0.68144
C          2.50095        1.77426        0.77280
C          1.91286        0.64571        0.26237
C          2.65917       -0.29242       -0.40112
C          4.02817       -0.14474       -0.55017
O          6.07473        1.02064        0.16213
C          4.48390        3.26099        1.24928
H          1.87075        2.50132        1.25495
H          2.15136       -1.14597       -0.81465
C          4.79994       -1.16743       -1.39905
C         -0.82512       -5.61366       -1.79672
C         -2.25622       -3.77914       -2.77298
C          0.24150       -3.68926       -2.93390
C         -0.66807       -3.12707        4.19445
C         -3.03679       -3.36026        3.42210
C         -1.38599       -5.24323        3.12059
C         -3.52420       -4.91516        0.32045
H         -0.78191       -6.15613       -2.74083
H          0.07872       -5.84164       -1.23273
H         -1.67308       -5.99799       -1.23583
H         -2.30782       -4.30981       -3.72325
H         -3.12232       -4.06457       -2.18022
H         -2.33254       -2.71145       -2.97795
H          0.15887       -2.65817       -3.27368
H          1.18401       -3.80062       -2.39925
H          0.28628       -4.31616       -3.82409
H          0.38303       -3.25000        3.93467
H         -0.86062       -2.06710        4.35369
H         -0.83858       -3.62891        5.14667
H         -3.32629       -3.75957        4.39377
H         -3.17341       -2.27943        3.44818
H         -3.71891       -3.76242        2.67684
H         -0.36516       -5.50600        2.84524
H         -1.58396       -5.64556        4.11378
H         -2.05737       -5.74042        2.42494
H         -3.77772       -3.85826        0.22813
H         -3.83181       -5.44139       -0.58298
H         -4.06182       -5.34532        1.16535
C          6.62913        0.34400        1.28321
C          3.46687        4.42347        1.19822
C          4.88767        3.02888        2.71312
C          5.70814        3.69811        0.42432
C          6.02855       -0.52246       -2.06597
C          5.23326       -2.34436       -0.51246
C          3.90473       -1.70805       -2.53767
H          3.06252        4.54100        0.19317
H          2.63814        4.26409        1.88659
H          3.93997        5.36377        1.48042
H          5.62464        2.23390        2.79698
H          5.31580        3.93166        3.14804
H          4.02224        2.74333        3.31077
H          6.10530        4.64678        0.78450
H          6.50785        2.96373        0.48253
H          5.44046        3.81839       -0.62488
H          6.53474       -1.22946       -2.72275
H          5.73206        0.34093       -2.66066
H          6.75081       -0.18526       -1.32689
H          5.77666       -3.09018       -1.09207
H          5.87874       -2.01166        0.29700
H          4.36579       -2.83006       -0.06611
H          3.09563       -2.32614       -2.15322
H          4.48139       -2.32680       -3.22474
H          3.46760       -0.88936       -3.10879
H          7.22391        1.04219        1.87202
H          5.83698       -0.07423        1.90551
H          7.28443       -0.45694        0.94162
