64
-97.21133349
Cl        -1.48089       -1.45115       -2.59122
Cl         1.63061       -1.33896       -2.90190
P          1.99278       -0.61845        0.26676
C          2.26433       -2.28857        1.01631
C          3.75335       -0.12757       -0.04664
P         -1.31264       -0.15461        0.38911
C          1.24822        0.56622        1.44549
C         -0.18543        0.79013        1.48766
C         -0.43023        1.89630        2.40094
C          0.85302        2.34231        2.91319
C          1.89227        1.49303        2.36184
H         -1.39918        2.34229        2.62914
H          1.00661        3.15481        3.62625
Pd         0.21904       -0.97309       -1.19542
H          2.96491        1.57404        2.54468
C         -4.90705        2.39742       -0.76188
C         -4.19086        1.74324       -1.74431
C         -3.11134        0.95381       -1.39665
C         -2.74145        0.83306       -0.07648
C         -3.46782        1.46513        0.90717
C         -4.55204        2.25357        0.56486
H         -5.75076        3.01231       -1.02995
H         -4.47672        1.84025       -2.77888
H         -2.56884        0.40501       -2.14755
H         -3.19563        1.32522        1.94068
H         -5.11931        2.75237        1.33349
C         -2.76424       -3.96956        2.37678
C         -2.40106       -2.88625        3.15365
C         -1.96388       -1.72081        2.54972
C         -1.89230       -1.65179        1.17772
C         -2.25596       -2.72555        0.39966
C         -2.69367       -3.89163        0.99936
H         -3.10476       -4.87781        2.84676
H         -2.45708       -2.94787        4.22808
H         -1.67299       -0.86613        3.13966
H         -2.18930       -2.64082       -0.67332
H         -2.97779       -4.73592        0.39297
C          4.09724       -0.15893       -1.51926
H          3.87839        0.88609        0.35608
C          4.54689       -1.15596        0.78339
H          4.73140       -0.76017        1.79294
C          3.78535       -2.50443        0.89039
H          5.54033       -1.30524        0.33568
C          1.76137       -2.30910        2.44337
H          1.70912       -3.00993        0.40106
H          4.14678       -3.08691        1.75007
H          4.00469       -3.11762        0.00421
H          2.28396       -1.56259        3.04485
H          0.69474       -2.08020        2.49153
H          1.91875       -3.28384        2.91119
H          5.14286        0.10507       -1.69255
H          3.93648       -1.15825       -1.92718
H          3.47748        0.53177       -2.09355
Fe         0.78451        2.39946        0.81980
C          2.09180        3.15957       -0.53440
C          1.33658        4.24316        0.07262
C         -0.07344        4.00464       -0.18151
C         -0.18279        2.76733       -0.93230
C          1.15308        2.25785       -1.17527
H          3.18068        3.07238       -0.55482
H          1.75680        5.09686        0.60894
H         -0.90362        4.63803        0.13839
H         -1.11056        2.32324       -1.29395
H          1.40225        1.37365       -1.76554
