111
-148.55612181
P         -2.66176        2.11612        0.47289
P          0.08662        0.55919        0.31767
C         -1.53698        2.13124        1.89659
C         -0.31788        1.49558        1.80284
C         -3.55369        3.72889        0.29433
C         -2.98473        4.56213       -0.83325
C         -1.89247        2.76559        3.06993
H         -2.85511        3.24353        3.14751
C         -1.01827        2.76913        4.14332
H         -1.29499        3.26483        5.05949
C          0.20643        2.13709        4.04330
H          0.88579        2.13836        4.87975
C          0.55592        1.49343        2.86984
H          1.50013        0.97946        2.77975
Pd        -1.43105        1.25010       -1.28517
Cl        -3.17770        1.83010       -2.57094
Cl        -0.14815        0.37703       -2.90426
C         -5.01623        3.28796        0.10080
C         -4.09808        0.96535        0.66996
H         -3.51324        5.51304       -0.93286
H         -1.92564        4.77698       -0.67228
H         -3.07046        4.03810       -1.78578
H         -5.21706        3.19768       -0.97568
H         -5.70392        4.06579        0.46624
H         -4.16148        0.39602       -0.26714
C         -5.29708        1.92423        0.79509
C         -3.90290        0.03787        1.84962
H         -3.44033        4.25366        1.25135
H         -5.50570        2.09223        1.86061
H         -6.20569        1.45596        0.38710
H         -4.76060       -0.62548        1.98306
H         -3.01309       -0.58187        1.72067
H         -3.77503        0.60624        2.77275
C         -0.97138       -3.83717        0.86371
C         -0.87880       -2.99501        2.00394
C         -0.55314       -1.66312        1.80988
C         -0.39978       -1.14943        0.54909
C         -0.60658       -1.93089       -0.55584
C         -0.94208       -3.26772       -0.43707
O         -1.00378       -5.24677        1.01973
C         -1.11472       -3.47440        3.44583
H         -0.39812       -1.01160        2.65227
H         -0.48720       -1.47896       -1.52577
C         -1.27511       -4.03840       -1.72497
C          4.52195        0.64496       -0.70320
C          3.66941        1.65269       -1.22396
C          2.33020        1.63141       -0.86866
C          1.82426        0.61923       -0.09684
C          2.62249       -0.41311        0.32242
C          3.96911       -0.45273        0.00409
O          5.92931        0.75007       -0.86358
C          4.17921        2.76065       -2.15908
H          1.65757        2.40378       -1.19939
H          2.17167       -1.20024        0.90220
C          4.80004       -1.67231        0.43306
C         -2.03344       -2.47190        4.17910
C         -1.81274       -4.84440        3.50038
C          0.23295       -3.55370        4.18205
C          0.01707       -4.28793       -2.52021
C         -1.97315       -5.37923       -1.43991
C         -2.24396       -3.19697       -2.58624
C          0.29058       -5.82594        1.03103
H         -1.57142       -1.49063        4.27376
H         -2.97510       -2.35198        3.64446
H         -2.26242       -2.82063        5.18577
H         -2.05678       -5.12057        4.52592
H         -2.73657       -4.82805        2.92317
H         -1.17800       -5.62690        3.09139
H          0.09427       -3.87106        5.21524
H          0.90313       -4.26321        3.70041
H          0.72873       -2.58343        4.19251
H         -0.19482       -4.80921       -3.45331
H          0.51052       -3.34803       -2.76577
H          0.71982       -4.89266       -1.95026
H         -2.28547       -5.86405       -2.36454
H         -1.31111       -6.06477       -0.91624
H         -2.85594       -5.22838       -0.81958
H         -2.56129       -3.75166       -3.46875
H         -3.13449       -2.93298       -2.01656
H         -1.78146       -2.27440       -2.93299
H          0.81147       -5.59651        0.10289
H          0.86989       -5.43089        1.86396
H          0.19988       -6.90725        1.13606
C          6.58192        1.44846        0.18911
C          4.64331        3.96158       -1.32159
C          5.33358        2.25179       -3.04172
C          3.05595        3.22678       -3.11352
C          5.93094       -1.95223       -0.57305
C          5.38419       -1.42383        1.83171
C          3.91770       -2.94201        0.48459
H          5.00002        4.76882       -1.96080
H          3.82459        4.34768       -0.71482
H          5.45121        3.68389       -0.64885
H          5.64950        3.01481       -3.75266
H          6.20026        1.98076       -2.44385
H          5.02637        1.37042       -3.60366
H          3.44621        3.91221       -3.86543
H          2.61163        2.37776       -3.63247
H          2.26629        3.75379       -2.58022
H          6.48043       -2.85415       -0.30458
H          5.52708       -2.08651       -1.57597
H          6.64292       -1.13133       -0.60780
H          6.02901       -0.54827        1.83957
H          4.58846       -1.25590        2.55718
H          5.97200       -2.27805        2.16676
H          3.38138       -3.08018       -0.45400
H          3.18815       -2.89548        1.29192
H          4.52634       -3.82957        0.65588
H          7.31156        0.79368        0.66518
H          7.11180        2.30965       -0.21759
H          5.85598        1.78456        0.93056
