111
-148.55447260
P         -1.60104        2.76030        0.70841
P         -0.58474       -0.21241        0.40340
C         -1.55366        1.67153        2.15889
C         -1.18954        0.34988        2.00987
C         -0.34685        4.11000        0.87514
C          0.71513        3.99046       -0.19729
C         -1.85629        2.16491        3.41208
H         -2.09997        3.20816        3.52844
C         -1.82151        1.32437        4.51112
H         -2.06173        1.70847        5.48908
C         -1.47491       -0.00401        4.35670
H         -1.44399       -0.65786        5.21271
C         -1.14805       -0.48977        3.10373
H         -0.84501       -1.51594        2.97390
Pd        -1.48042        1.31990       -1.09463
Cl        -2.64741        2.74005       -2.37284
Cl        -1.10125       -0.16373       -2.74203
C         -1.18926        5.39884        0.78857
C         -3.15016        3.77269        0.61909
H          1.25781        3.04665       -0.11838
H          0.26473        4.02560       -1.19140
H          1.44298        4.80256       -0.13181
H         -1.11766        5.79672       -0.23294
H         -0.76325        6.17902        1.43721
H         -3.39751        3.84557       -0.44780
C         -2.68391        5.14520        1.13592
C         -4.30337        3.15394        1.37999
H          0.08811        3.99832        1.87675
H         -2.82309        5.18262        2.22496
H         -3.32340        5.94404        0.73008
H         -4.52254        2.14793        1.01511
H         -4.07751        3.07366        2.44347
H         -5.21095        3.75414        1.28375
C         -0.71663       -4.72203       -0.21687
C          0.18269       -4.16014        0.72529
C          0.20530       -2.78233        0.86885
C         -0.67969       -1.98579        0.18974
C         -1.62328       -2.53284       -0.63891
C         -1.68889       -3.90115       -0.84328
O         -0.61895       -6.09637       -0.56210
C          1.14552       -5.01243        1.56732
H          0.93227       -2.30701        1.50535
H         -2.29189       -1.86616       -1.15502
C         -2.76865       -4.46499       -1.77997
C          3.70292        1.26550       -0.04099
C          3.07351        1.29645        1.22967
C          1.78653        0.79799        1.33778
C          1.11300        0.33855        0.23690
C          1.68088        0.39640       -1.00789
C          2.95811        0.89619       -1.19007
O          5.08272        1.58218       -0.15554
C          3.77215        1.85133        2.48042
H          1.28651        0.76852        2.28961
H          1.08749        0.07428       -1.84541
C          3.50199        1.04488       -2.61965
C          1.41789       -4.33713        2.93119
C          0.54496       -6.39774        1.86840
C          2.47919       -5.16260        0.81992
C         -2.22056       -4.50679       -3.21468
C         -3.20983       -5.87164       -1.33685
C         -4.02964       -3.57126       -1.76312
C          0.28317       -6.36328       -1.62881
H          1.99621       -4.99488        3.57968
H          1.98872       -3.41646        2.81997
H          0.48359       -4.10252        3.44062
H          1.19982       -6.97569        2.52004
H         -0.42155       -6.29768        2.36121
H          0.39632       -6.97322        0.95836
H          3.18748       -5.75347        1.40016
H          2.34041       -5.65277       -0.14068
H          2.92730       -4.18708        0.63206
H         -1.34335       -5.14537       -3.28346
H         -2.96961       -4.88751       -3.90842
H         -1.93041       -3.50930       -3.54415
H         -3.55978       -5.85666       -0.30523
H         -4.01899       -6.24432       -1.96442
H         -2.39058       -6.58334       -1.40055
H         -4.37796       -3.41092       -0.74317
H         -3.84169       -2.60057       -2.21951
H         -4.84008       -4.03569       -2.32441
H          0.72681       -5.43574       -1.99291
H          1.07113       -7.03266       -1.28418
H         -0.24892       -6.85577       -2.44257
C          5.94561        0.45594       -0.06276
C          2.73774        2.38493        3.49769
C          4.58203        0.73086        3.14949
C          4.69364        3.02961        2.11662
C          4.19955       -0.25824       -3.03690
C          2.35017        1.32938       -3.61174
C          4.47973        2.22963       -2.72106
H          2.13969        1.58117        3.92477
H          3.23498        2.88806        4.32663
H          2.06558        3.10178        3.02755
H          5.07847        1.09193        4.04985
H          3.93294       -0.09826        3.43052
H          5.34441        0.34190        2.47906
H          4.13342        3.80997        1.60244
H          5.14299        3.46574        3.00842
H          5.50213        2.71257        1.46227
H          3.50308       -1.09568       -3.00125
H          4.58827       -0.18524       -4.05227
H          5.02998       -0.49075       -2.37448
H          2.74084        1.56649       -4.60092
H          1.69308        0.46878       -3.72656
H          1.75026        2.17549       -3.27748
H          4.00232        3.15002       -2.38622
H          4.81426        2.37504       -3.74789
H          5.36254        2.07007       -2.10725
H          5.36953       -0.45051        0.12759
H          6.50412        0.34367       -0.99176
H          6.65934        0.61040        0.74637
