111
-148.55471536
P         -2.54362        2.09614        0.88543
P          0.10565        0.34817        0.51383
C         -1.47989        1.73211        2.31047
C         -0.31509        1.01571        2.13489
C         -3.28043        3.79071        0.99631
C         -2.61128        4.75328        0.03971
C         -1.83674        2.16334        3.57217
H         -2.75891        2.70366        3.70997
C         -1.01811        1.88562        4.65341
H         -1.29650        2.22299        5.63847
C          0.15306        1.17542        4.47238
H          0.78955        0.95776        5.31421
C          0.50332        0.73490        3.20868
H          1.40583        0.16483        3.05119
Pd        -1.30398        1.44153       -0.94896
Cl        -2.91761        2.39740       -2.18274
Cl        -0.00351        0.76334       -2.65154
C         -4.77261        3.53204        0.71674
C         -4.08142        1.06950        0.83104
H         -3.04720        5.75264        0.10873
H         -1.54077        4.83448        0.24280
H         -2.72334        4.41695       -0.99169
H         -4.95794        3.66756       -0.35775
H         -5.39480        4.28644        1.22194
H         -4.16925        0.70838       -0.20248
C         -5.19117        2.09309        1.13546
C         -4.00166       -0.08986        1.80035
H         -3.14063        4.12289        2.03278
H         -5.40521        2.07278        2.21293
H         -6.12995        1.79793        0.64253
H         -4.91657       -0.68674        1.78636
H         -3.16402       -0.74797        1.55887
H         -3.85329        0.26746        2.82109
C         -1.12287       -4.02486        0.15416
C         -1.12443       -3.40444        1.43253
C         -0.73182       -2.07881        1.51836
C         -0.43371       -1.35614        0.39287
C         -0.56652       -1.91395       -0.85089
C         -0.94444       -3.23445       -1.01173
O         -1.21298       -5.43648        0.04683
C         -1.54629       -4.11599        2.72924
H         -0.64607       -1.59665        2.47662
H         -0.35952       -1.29603       -1.70765
C         -1.15161       -3.74916       -2.44547
C          4.46804        0.81934       -0.69785
C          3.82531       -0.43676       -0.83864
C          2.49845       -0.53754       -0.45870
C          1.83612        0.52349        0.10042
C          2.47963        1.71124        0.32866
C          3.81041        1.87873       -0.02033
O          5.75245        1.02700       -1.26741
C          4.52115       -1.66981       -1.43593
H          1.95437       -1.45227       -0.61336
H          1.91984        2.51420        0.77680
C          4.50692        3.20886        0.30758
C         -0.30157       -4.39254        3.58834
C         -2.51625       -3.21071        3.52045
C         -2.28708       -5.43692        2.45775
C          0.21506       -3.90445       -3.13344
C         -1.90369       -5.09049       -2.48257
C         -2.00247       -2.73046       -3.23693
C          0.05442       -6.07049        0.09520
H         -0.57510       -4.87644        4.52561
H          0.39901       -5.04252        3.06751
H          0.21964       -3.46636        3.82857
H         -2.04011       -2.28470        3.83846
H         -3.38322       -2.95377        2.91273
H         -2.87421       -3.71597        4.41712
H         -3.13362       -5.27280        1.79190
H         -1.63157       -6.16741        1.98953
H         -2.66132       -5.87499        3.38273
H          0.09691       -4.24533       -4.16159
H          0.74986       -2.95539       -3.15455
H          0.83956       -4.62617       -2.61028
H         -2.12250       -5.39013       -3.50720
H         -1.31704       -5.88409       -2.02593
H         -2.84588       -5.01760       -1.94050
H         -2.23416       -3.10800       -4.23242
H         -2.94360       -2.53464       -2.72396
H         -1.48501       -1.78107       -3.36381
H         -0.07923       -7.14888        0.00745
H          0.68080       -5.71744       -0.72250
H          0.54956       -5.84458        1.03825
C          5.72073        1.50366       -2.60694
C          4.30893       -1.68244       -2.95748
C          6.02477       -1.67291       -1.10698
C          3.92806       -2.97115       -0.84707
C          3.90498        3.83894        1.58439
C          6.00789        2.99851        0.57812
C          4.31080        4.18686       -0.86074
H          3.24606       -1.70242       -3.19730
H          4.73495       -0.79684       -3.42258
H          4.77426       -2.55777       -3.40989
H          6.50558       -2.57706       -1.47954
H          6.53136       -0.82239       -1.55603
H          6.18175       -1.62414       -0.02996
H          2.90173       -3.13229       -1.17363
H          4.50416       -3.83863       -1.16831
H          3.94153       -2.94536        0.24222
H          4.47940        4.71231        1.89246
H          2.88001        4.17088        1.42616
H          3.91185        3.12613        2.40863
H          6.48740        3.93146        0.87333
H          6.15559        2.27325        1.37760
H          6.52300        2.62997       -0.30536
H          3.25072        4.36336       -1.04138
H          4.74128        3.79556       -1.77926
H          4.78220        5.14650       -0.65025
H          6.23417        0.79747       -3.25918
H          4.68996        1.62585       -2.94229
H          6.23915        2.46043       -2.66713
