45
-71.81578962
C          2.25125        1.49829        2.34363
P          1.49977        0.97072        0.76811
P         -1.01263        0.07052       -0.93030
C         -0.35425       -0.56913       -2.50753
Cl         1.45433       -1.72124        2.45011
H          2.94488        2.31631        2.17168
H          0.70393       -0.33701       -2.58636
Cl        -1.26606       -2.64016        0.65378
C          0.43708        2.22564        0.02425
C         -0.64099        1.82604       -0.73558
C         -1.44278        2.76395       -1.35259
C         -1.15978        4.11075       -1.20778
C         -0.07550        4.51145       -0.45118
C          0.72780        3.56714        0.16374
H         -2.28480        2.43567       -1.94079
H         -1.78488        4.84614       -1.68697
H          0.14752        5.56004       -0.34187
H          1.58364        3.86808        0.74579
Pd         0.14478       -0.90539        0.82249
H         -0.87864       -0.11123       -3.34135
H          2.79018        0.66739        2.78988
H         -0.48039       -1.64702       -2.55412
C         -5.45538       -0.68063       -0.29986
C         -4.76769        0.18862        0.52354
C         -3.41826        0.41213        0.31492
C         -2.76923       -0.22919       -0.71571
C         -3.44925       -1.10081       -1.53538
C         -4.79818       -1.32676       -1.32826
H         -6.50591       -0.85822       -0.13713
H         -5.27877        0.68983        1.32904
H         -2.86492        1.08394        0.95255
H         -2.92406       -1.60827       -2.32806
H         -5.33373       -2.01033       -1.96641
C          4.53613       -0.50941       -2.27053
C          4.32815       -1.21408       -1.10085
C          3.41205       -0.75157       -0.17433
C          2.71896        0.41088       -0.42021
C          2.91423        1.11196       -1.58767
C          3.82934        0.65167       -2.51714
H          5.24877       -0.86884       -2.99480
H          4.87194       -2.12518       -0.91275
H          3.20697       -1.30207        0.73011
H          2.34820        2.01148       -1.76842
H          3.98844        1.19767       -3.43248
H          1.47643        1.82566        3.03095
