111
-148.54773561
P         -2.74439        1.89215       -0.32454
P          0.09337        0.58107        0.22318
C         -1.85071        2.25999        1.21623
C         -0.59768        1.72609        1.42558
C         -3.92673        3.27015       -0.71316
C         -3.79511        3.75197       -2.13978
C         -2.42516        3.05230        2.19079
H         -3.41676        3.44668        2.04361
C         -1.73573        3.31879        3.36129
H         -2.18535        3.93837        4.12001
C         -0.47546        2.78936        3.56083
H          0.06002        2.99455        4.47316
C          0.09333        1.98429        2.59075
H          1.06791        1.54509        2.73685
Pd        -1.12235        0.96463       -1.70736
Cl        -2.12752        1.72294       -3.55596
Cl         0.50054       -0.07233       -2.87226
C         -5.30074        2.64108       -0.40270
C         -3.93925        0.48960       -0.11566
H         -2.77641        4.08142       -2.35619
H         -4.03625        2.94846       -2.83743
H         -4.47271        4.58306       -2.34877
H         -6.06684        3.09365       -1.04918
H         -5.60136        2.88449        0.62692
H         -3.61163       -0.31220       -0.79193
C         -5.27791        1.09756       -0.58017
C         -3.95815       -0.00153        1.31579
H         -3.69866        4.09075       -0.02033
H         -6.10558        0.63117       -0.02615
H         -5.45304        0.85098       -1.63773
H         -2.97083       -0.34325        1.63108
H         -4.25934        0.79933        1.99361
H         -4.65840       -0.82983        1.44745
C         -1.31030       -3.62603        1.25202
C         -0.91208       -3.31580       -0.07548
C         -0.49947       -2.02363       -0.34699
C         -0.40954       -1.08415        0.64492
C         -0.65805       -1.41650        1.95053
C         -1.07085       -2.69232        2.29564
O         -2.02104       -4.82428        1.51877
C         -0.90667       -4.32752       -1.23270
H         -0.24414       -1.72771       -1.35003
H         -0.54099       -0.65808        2.70553
C         -1.23277       -3.01338        3.79044
C          4.63450        0.79069       -0.01300
C          3.85144        1.63432       -0.84249
C          2.47221        1.57765       -0.72364
C          1.87490        0.67289        0.11345
C          2.62378       -0.21757        0.83787
C          4.00668       -0.21165        0.76946
O          6.04165        0.97020        0.05827
C          4.47567        2.60425       -1.85800
H          1.84049        2.23646       -1.29421
H          2.10674       -0.92729        1.46045
C          4.79681       -1.27624        1.54660
C         -2.05960       -4.00292       -2.19720
C          0.43369       -4.22665       -1.99446
C         -1.03846       -5.77932       -0.74155
C          0.01323       -2.51655        4.55682
C         -2.47949       -2.29624        4.33486
C         -1.35139       -4.52406        4.05588
C         -3.42432       -4.66643        1.39075
H         -2.06697       -4.69195       -3.04126
H         -3.02322       -4.07502       -1.69638
H         -1.96484       -2.99134       -2.59099
H          1.27350       -4.37030       -1.31520
H          0.49635       -4.98670       -2.77271
H          0.55354       -3.25841       -2.47751
H         -2.00655       -5.95177       -0.27720
H         -0.93842       -6.48398       -1.56676
H         -0.26925       -6.00678       -0.00436
H          0.92006       -2.95496        4.14100
H          0.11190       -1.43326        4.51133
H         -0.04204       -2.79353        5.60929
H         -2.39859       -1.21779        4.20190
H         -3.37963       -2.62760        3.82044
H         -2.60865       -2.49373        5.39867
H         -1.36789       -4.73512        5.12487
H         -2.26464       -4.92915        3.62651
H         -0.51000       -5.05858        3.61627
H         -3.91431       -5.61606        1.60664
H         -3.78078       -3.91026        2.08848
H         -3.67431       -4.35408        0.37803
C          6.45839        1.88483        1.06404
C          4.72185        3.96142       -1.18238
C          5.79524        2.04425       -2.41970
C          3.52834        2.81409       -3.06174
C          5.09980       -0.75469        2.95919
C          3.97740       -2.58220        1.66730
C          6.10615       -1.63412        0.82030
H          3.78847        4.37952       -0.80618
H          5.40382        3.86453       -0.34095
H          5.15273        4.67466       -1.88458
H          6.54722        1.94439       -1.64088
H          5.63725        1.06021       -2.85978
H          6.20306        2.69902       -3.18936
H          3.22499        1.85775       -3.48710
H          2.63122        3.36239       -2.77861
H          4.01992        3.38901       -3.84612
H          4.17669       -0.52818        3.49238
H          5.65160       -1.49454        3.53852
H          5.69349        0.15571        2.92402
H          4.58171       -3.37978        2.09884
H          3.10860       -2.45624        2.31169
H          3.63285       -2.91550        0.68863
H          5.90203       -1.96258       -0.19825
H          6.63440       -2.43556        1.33614
H          6.77636       -0.77977        0.76683
H          7.11550        1.37741        1.77011
H          7.01606        2.70179        0.60645
H          5.59445        2.28641        1.59510
