100
-131.98363476
C         -1.64307        3.75632       -1.43761
C         -2.37165        2.48395       -1.48367
C         -0.24981        3.48656       -1.52228
C         -0.04400        2.01581       -1.60229
C          1.12978        1.43407       -2.31250
C         -1.42001        1.41414       -1.57539
C         -1.81950        0.00570       -1.98844
C         -0.84819       -0.71640       -2.89815
Cl         1.01224       -0.52437        2.76432
Cl        -1.87759       -1.68910        2.32943
C          3.24982        0.42003       -3.83529
C          2.50591        1.47977       -4.31569
C          2.95228       -0.12305       -2.59379
C          1.47198        1.98350       -3.56727
C          1.90502        0.35397       -1.84133
H         -3.45556        2.37712       -1.55045
H          0.54010        4.23622       -1.61034
H          0.05638       -0.98675       -2.35435
H         -1.27463       -1.64113       -3.29440
H         -0.55920       -0.09358       -3.74821
H          4.07009        0.02806       -4.41414
H          2.73898        1.91113       -5.27575
H          3.57452       -0.91373       -2.20900
H          0.88625        2.80439       -3.94378
H         -2.10039        4.74933       -1.42928
P          1.76289       -0.30612       -0.16185
H         -2.78569        0.08077       -2.50326
P         -2.16460       -1.01199       -0.49629
H         -3.47901       -3.01991       -0.32175
C         -1.67090       -3.75727       -1.20769
C         -2.73893       -2.67826       -1.04619
C         -1.21899       -4.29496        0.15230
H         -3.21973        0.78423        0.63455
C         -4.90199       -0.03709       -0.42235
C         -3.58958       -0.20105        0.35987
H         -4.64690        0.27049       -1.45104
C         -5.71133       -1.33416       -0.50043
H          3.61070       -1.82639       -0.41008
H          2.55157        0.77859        1.85828
C          3.53307        3.27044        1.18238
C          2.70203        2.29390        0.33063
C          2.87183        0.84702        0.81352
C          4.35814        0.45757        0.74597
C          5.22604        1.42181        1.58142
C          5.02331        2.88416        1.14032
H          3.17734        3.24025        2.21971
H          3.38380        4.30675        0.84827
H          3.03866        2.35482       -0.71169
H          1.64313        2.57220        0.30560
H          4.50789       -0.57624        1.08016
H          4.68194        0.48104       -0.30129
H          4.95753        1.32268        2.64059
H          6.28674        1.14035        1.52094
H          5.40276        3.01122        0.11858
H          5.62048        3.56605        1.76222
C          2.68729       -4.30582       -1.10636
C          1.92616       -2.96484       -1.07633
C          2.57345       -1.98583       -0.09436
C          2.60477       -2.60053        1.31262
C          3.38955       -3.92656        1.31270
C          2.78437       -4.92282        0.30398
H          3.69724       -4.14005       -1.50126
H          2.20963       -5.00581       -1.80621
H          0.90001       -3.13702       -0.74420
H          1.84643       -2.52427       -2.07903
H          3.01271       -1.88967        2.04279
H          1.57637       -2.79071        1.64054
H          4.43550       -3.72921        1.04709
H          3.41934       -4.36038        2.32202
H          1.78492       -5.21910        0.64401
H          3.37017       -5.85266        0.27974
H         -0.81245       -3.29401       -1.72145
C         -2.17969       -4.90235       -2.08897
H         -3.77774       -0.73569        1.29067
C         -5.75446        1.07355        0.20211
H         -3.26214       -2.52018       -1.99115
H         -0.82949       -3.50696        0.79554
H         -0.44813       -5.05854        0.04378
H         -2.05646       -4.75318        0.67904
H         -1.41624       -5.66978       -2.22660
H         -3.04819       -5.37967       -1.63403
H         -2.47912       -4.54691       -3.07630
H         -5.88513       -1.74115        0.49618
H         -6.68764       -1.16190       -0.95662
H         -5.21438       -2.10021       -1.09255
H         -6.01088        0.82554        1.23254
H         -5.22744        2.02839        0.21517
H         -6.68791        1.21738       -0.34424
Fe        -1.07598        2.61141        0.10434
C         -2.42925        3.03532        1.61185
C         -1.57637        4.18628        1.38006
C         -0.20327        3.78492        1.61140
C         -0.21824        2.38147        1.97209
C         -1.59112        1.92677        2.02101
H         -3.52087        3.03626        1.58008
H         -1.91373        5.19172        1.11855
H          0.67451        4.43195        1.55368
H          0.63774        1.78728        2.29122
H         -1.91495        0.93218        2.33494
Pd        -0.29232       -0.84060        0.94215
