59
-75.79834650
Cl         1.28005        0.54925        2.49277
P          1.46464        0.02528       -0.81256
P         -1.72393       -0.20644       -0.81823
C          0.47409        0.38470       -2.33265
H          0.18313        1.43740       -2.31964
H          1.11276        0.23330       -3.20850
C         -0.74085       -0.49853       -2.35285
H         -0.45082       -1.55152       -2.38212
H         -1.38086       -0.31011       -3.22040
C          2.49217       -1.48162       -1.12408
H          2.10962       -1.90560       -2.06266
C          2.80130        1.27056       -0.49852
H          2.62491        1.66553        0.51010
C         -3.03347       -1.48287       -0.52582
H         -3.07533       -1.62621        0.56103
C         -2.79432        1.29957       -1.01057
H         -2.66612        1.63353       -2.04724
C          3.90375       -0.89815       -1.32767
H          4.65849       -1.64061       -1.02997
H          4.07907       -0.71579       -2.39852
C          4.09665        0.43187       -0.54622
H          4.90430        1.02208       -1.00066
H          4.43967        0.21570        0.47551
C         -4.30700       -0.77507       -1.01635
H         -4.43717       -0.98192       -2.08784
H         -5.19523       -1.19875       -0.52269
C         -4.22059        0.75747       -0.78757
H         -4.52497        0.98506        0.24332
H         -4.93821        1.29089       -1.42909
C          2.38461       -2.51990       -0.00662
H          2.85538       -3.45601       -0.33873
H          1.32624       -2.76741        0.14453
C          2.76117        2.41341       -1.50764
H          2.96888        2.00919       -2.50716
H          1.73903        2.81048       -1.56169
C         -2.75102       -2.81326       -1.21308
H         -3.65013       -3.44289       -1.15981
H         -2.58927       -2.63365       -2.28377
C         -2.42677        2.42461       -0.04531
H         -3.23630        3.16790       -0.04527
H         -2.40883        2.02047        0.97524
C          2.99750       -2.08974        1.31657
H          4.07861       -1.96596        1.23789
H          2.81385       -2.81886        2.10911
H          2.58817       -1.13700        1.65015
C          3.72627        3.54407       -1.17814
H          4.76238        3.20264       -1.17212
H          3.52022        3.96037       -0.19021
H          3.65848        4.36214       -1.89901
C         -1.56620       -3.54833       -0.60812
H         -1.73801       -3.77440        0.44602
H         -0.66169       -2.94302       -0.65930
H         -1.36119       -4.49173       -1.11922
C         -1.10696        3.10808       -0.36667
H         -1.11033        3.51952       -1.37775
H         -0.89386        3.92929        0.32146
H         -0.27079        2.41238       -0.30298
Cl        -1.82442       -0.16439        2.34010
Pd        -0.13999       -0.02699        0.85339
