111
-148.55599535
P         -2.50694        2.10722        1.04971
P          0.08487        0.35755        0.53683
C         -1.41674        1.68593        2.43490
C         -0.27210        0.95571        2.19931
C         -3.19411        3.81830        1.20533
C         -2.55164        4.75980        0.21010
C         -1.73085        2.07725        3.72058
H         -2.63708        2.63145        3.90249
C         -0.88888        1.74204        4.76710
H         -1.13305        2.04709        5.77157
C          0.26168        1.01539        4.52674
H          0.91580        0.75296        5.34185
C          0.56944        0.61742        3.23801
H          1.45577        0.03722        3.03330
Pd        -1.34826        1.53121       -0.85562
Cl        -2.97749        2.40274       -2.11978
Cl         0.02547        0.93244       -2.53640
C         -4.70581        3.60222        1.00281
C         -4.07248        1.12298        1.02563
H         -2.72686        4.42115       -0.81211
H         -2.95774        5.77035        0.29656
H         -1.47009        4.81425        0.35609
H         -4.94626        3.76890       -0.05626
H         -5.27991        4.35901        1.55873
H         -4.21239        0.79984       -0.01472
C         -5.13951        2.16467        1.40965
C         -3.98637       -0.07021        1.95208
H         -2.98854        4.14426        2.23289
H         -5.29953        2.12338        2.49589
H         -6.10896        1.90395        0.95834
H         -3.78712        0.24787        2.97711
H         -4.91747       -0.64165        1.95617
H         -3.17785       -0.74140        1.65432
C         -1.10452       -4.00665        0.01426
C         -1.15179       -3.42663        1.31067
C         -0.78028       -2.09935        1.44904
C         -0.45799       -1.33930        0.35542
C         -0.54189       -1.85969       -0.90836
C         -0.90025       -3.17859       -1.12109
O         -1.17287       -5.41525       -0.13918
C         -1.59219       -4.18659        2.57323
H         -0.72314       -1.64756        2.42410
H         -0.30828       -1.21372       -1.73737
C         -1.05610       -3.65022       -2.57594
C          4.42388        0.75029       -0.77558
C          3.86705       -0.53368       -0.54596
C          2.54412       -0.60984       -0.14613
C          1.80832        0.52139        0.09133
C          2.37067        1.76443       -0.02877
C          3.69037        1.91325       -0.42463
O          5.69761        0.87089       -1.39224
C          4.65146       -1.83633       -0.76798
H          2.05966       -1.56418       -0.03471
H          1.75325        2.62290        0.17336
C          4.28696        3.32657       -0.51344
C         -2.59133       -3.32158        3.37294
C         -2.30881       -5.50714        2.24160
C         -0.36252       -4.47516        3.45001
C          0.33287       -3.75841       -3.22733
C         -1.78147       -5.00272       -2.67937
C         -1.90238       -2.62098       -3.35844
C          0.10131       -6.03477       -0.07895
H         -3.44832       -3.05531        2.75516
H         -2.96180       -3.86185        4.24375
H         -2.13465       -2.40117        3.73298
H         -2.69685       -5.98084        3.14304
H         -3.14303       -5.33167        1.56322
H         -1.63360       -6.21307        1.76385
H          0.35867       -5.09740        2.92352
H          0.14000       -3.55059        3.73264
H         -0.64937       -4.99415        4.36424
H          0.95796       -4.47985       -2.70441
H          0.25197       -4.07458       -4.26693
H          0.84691       -2.79792       -3.20838
H         -1.19337       -5.80077       -2.23256
H         -2.73997       -4.96498       -2.16292
H         -1.96529       -5.27144       -3.71934
H         -1.40148       -1.65734       -3.43408
H         -2.09392       -2.96692       -4.37375
H         -2.86338       -2.46265       -2.86997
H          0.74684       -5.64006       -0.86199
H          0.56533       -5.84253        0.88704
H         -0.01487       -7.11016       -0.21515
C          5.64869        0.93445       -2.81221
C          4.13679       -2.95074        0.17261
C          4.46338       -2.30048       -2.22040
C          6.14695       -1.64308       -0.45917
C          5.79812        3.31326       -0.21967
C          4.02322        3.89973       -1.91427
C          3.63513        4.26048        0.53168
H          4.13140       -2.61212        1.20834
H          3.12862       -3.26826       -0.09027
H          4.77427       -3.83255        0.11229
H          4.99718       -3.23236       -2.40506
H          3.40851       -2.46691       -2.43714
H          4.83135       -1.55721       -2.92337
H          6.28431       -1.27658        0.55758
H          6.69208       -2.58143       -0.55827
H          6.60275       -0.92507       -1.13623
H          6.34289        2.73894       -0.96463
H          6.20629        4.32366       -0.22027
H          5.99550        2.86811        0.75492
H          2.95358        3.93748       -2.11940
H          4.42087        4.91022       -2.00453
H          4.48483        3.28679       -2.68456
H          3.69077        3.82469        1.52890
H          2.58937        4.45744        0.30062
H          4.14284        5.22440        0.55886
H          6.09526        1.86855       -3.15251
H          6.22195        0.10986       -3.23554
H          4.61627        0.87667       -3.15957
