72
-108.40447105
Cl        -1.75493        0.76469        2.70309
Cl         0.96658       -0.78557        2.75721
P          1.14498       -1.12380       -0.28009
P         -2.27254        0.12401       -0.38269
C         -3.25708       -1.48559       -0.18262
C         -3.61579       -1.67309        1.29289
C         -4.52053       -1.43085       -1.03368
C         -3.35237        1.66461       -0.10284
C         -4.16834        1.97786       -1.36314
C         -1.44407        0.45308       -2.04673
C         -1.50175       -0.69316       -3.03476
C          1.14007        0.23185       -1.49475
C         -0.02540        0.99112       -1.95210
C          0.48334        2.08962       -2.77742
C          1.92727        1.98104       -2.85854
C          2.33004        0.83363       -2.06845
C         -2.39041       -2.66415       -0.60603
H         -2.72616       -1.65914        1.92263
H         -4.29366       -0.90476        1.65466
H         -5.21326       -0.67244       -0.67270
H         -5.04536       -2.38709       -1.00264
C         -4.30547        1.50078        1.07681
H         -4.93354        2.72484       -1.14539
H         -4.67227        1.09398       -1.74980
H         -2.04691        1.26852       -2.45741
H         -0.85272       -1.50478       -2.71388
H         -1.14125       -0.38071       -4.01701
H         -2.51205       -1.07937       -3.16539
H         -0.13432        2.79417       -3.33805
H          2.59176        2.63384       -3.42882
Pd        -0.52473       -0.27619        1.14165
H          3.35106        0.48801       -1.89258
C         -2.38435        2.80520        0.17522
H         -3.55145        2.39214       -2.15964
H         -3.77930        1.18389        1.97489
H         -4.79383        2.44901        1.30617
H         -5.09474        0.78389        0.85785
H         -1.63126        2.87980       -0.61060
H         -2.91071        3.76025        0.22966
H         -1.87876        2.65437        1.12785
H         -4.11110       -2.63312        1.44730
H         -4.29171       -1.21366       -2.07610
H         -2.16212       -2.64714       -1.66849
H         -1.45612       -2.66980       -0.04759
H         -2.89773       -3.60926       -0.40501
C          2.82274       -1.21713        0.39923
C          3.26423       -2.17955        1.27292
C          4.59823       -1.89154        1.56105
C          4.91862       -0.76364        0.84693
O          3.83807       -0.33941        0.12909
H          2.67901       -2.98852        1.67781
H          5.24850       -2.44403        2.21946
H          5.88180       -0.26850        0.84403
C          0.75917       -2.72591       -1.00910
C          0.70082       -3.89063       -0.28410
C          0.37856       -4.91263       -1.17812
C          0.25374       -4.32717       -2.41412
O          0.48071       -2.98334       -2.32368
H          0.85497       -3.98625        0.77857
H          0.25204       -5.95698       -0.94386
H          0.00886       -4.84102       -3.33540
Fe         1.29496        2.10869       -0.90715
C          2.97929        2.77018        0.07972
C          2.15322        1.96386        0.95636
C          0.86202        2.60358        1.08067
C          0.86521        3.78014        0.23317
C          2.17678        3.88944       -0.37956
H          4.01751        2.56319       -0.18928
H          2.46056        1.05161        1.47080
H          0.05332        2.25940        1.72685
H          0.05029        4.49967        0.12873
H          2.51020        4.68783       -1.04641
