111
-148.55477700
P         -1.39040        2.63964        1.27522
P         -0.32105       -0.24438        0.57146
C         -0.87724        1.51959        2.60849
C         -0.47764        0.23582        2.30236
C         -0.25540        4.09395        1.15642
C          0.53987        4.05023       -0.13138
C         -0.86043        1.95014        3.91968
H         -1.13755        2.96602        4.14927
C         -0.46706        1.08283        4.92425
H         -0.45772        1.41708        5.94886
C         -0.08123       -0.20773        4.61547
H          0.22959       -0.88083        5.39745
C         -0.07666       -0.62989        3.29801
H          0.25291       -1.62280        3.03495
Pd        -1.62819        1.27721       -0.57183
Cl        -2.67606        2.97714       -1.59186
Cl        -1.74664       -0.16212       -2.29228
C         -1.20997        5.29924        1.27152
C         -2.99596        3.50175        1.60410
H          1.19500        4.91927       -0.22680
H          1.16009        3.15343       -0.18791
H         -0.12710        4.03977       -0.99579
H         -1.43165        5.66888        0.26093
H         -0.71212        6.13436        1.78708
H         -3.52321        3.52287        0.64112
C         -2.54129        4.92263        1.98310
C         -3.83732        2.79583        2.64621
H          0.40514        4.03763        2.03146
H         -2.40537        4.97395        3.07212
H         -3.33205        5.65206        1.74992
H         -4.79178        3.30483        2.79842
H         -4.04630        1.76442        2.35303
H         -3.32749        2.76478        3.60944
C         -0.94040       -4.68922       -0.19875
C         -1.97385       -3.92737        0.40447
C         -1.74158       -2.58379        0.65270
C         -0.57014       -1.98788        0.26507
C          0.38734       -2.69551       -0.41338
C          0.21724       -4.03977       -0.69774
O         -1.05027       -6.10330       -0.27591
C         -3.32498       -4.54175        0.80308
H         -2.47610       -1.97934        1.15696
H          1.27818       -2.17807       -0.72340
C          1.28459       -4.76842       -1.52949
C          3.62538        1.36304       -1.04198
C          3.36318        1.40696        0.35144
C          2.17647        0.86398        0.81384
C          1.24730        0.35673       -0.05598
C          1.44731        0.41571       -1.40997
C          2.60960        0.94673       -1.93981
O          4.91148        1.71227       -1.53301
C          4.34653        2.02746        1.35581
H          1.95626        0.83861        1.86638
H          0.65492        0.06886       -2.05003
C          2.74402        1.07302       -3.46525
C         -4.44722       -3.48099        0.73705
C         -3.72392       -5.67491       -0.15998
C         -3.23738       -5.07490        2.24098
C          0.65415       -5.88541       -2.38081
C          1.97253       -3.78953       -2.50900
C          2.35104       -5.35382       -0.59192
C         -0.50872       -6.78968        0.84550
H         -5.42344       -3.94039        0.89053
H         -4.32828       -2.71954        1.50636
H         -4.45798       -2.98889       -0.23518
H         -3.74172       -5.31529       -1.18825
H         -3.02293       -6.50432       -0.10906
H         -4.71274       -6.06438        0.08084
H         -2.47223       -5.84221        2.33085
H         -2.98531       -4.27295        2.93450
H         -4.18671       -5.50769        2.55551
H          1.39902       -6.35982       -3.01920
H          0.21457       -6.65960       -1.75682
H         -0.13282       -5.48339       -3.01804
H          2.63061       -4.32454       -3.19329
H          1.23289       -3.25517       -3.10480
H          2.58500       -3.05776       -1.98415
H          1.91621       -6.06879        0.10233
H          3.12984       -5.86482       -1.15745
H          2.82195       -4.56577       -0.00468
H         -1.28815       -7.38491        1.32085
H          0.28022       -7.46488        0.51466
H         -0.10200       -6.07966        1.56672
C          5.80773        0.61373       -1.63993
C          3.59508        2.57846        2.58931
C          5.33941        0.95392        1.82530
C          5.10288        3.21124        0.72600
C          3.61421        2.28438       -3.84626
C          3.35369       -0.21798       -4.03143
C          1.35866        1.29276       -4.11628
H          4.27367        3.12688        3.24221
H          2.80036        3.25940        2.28656
H          3.15518        1.77977        3.18475
H          6.04281        1.36277        2.55023
H          4.81414        0.12288        2.29549
H          5.91110        0.55479        0.99092
H          4.40319        3.95685        0.34962
H          5.75325        3.69356        1.45527
H          5.72440        2.88698       -0.10517
H          4.63486        2.16741       -3.49074
H          3.65470        2.41351       -4.92752
H          3.21122        3.19793       -3.41021
H          3.46283       -0.15635       -5.11387
H          4.33492       -0.41133       -3.60438
H          2.71911       -1.07416       -3.80509
H          0.72908        0.40800       -4.03547
H          1.46069        1.51572       -5.17796
H          0.83757        2.12727       -3.64764
H          5.33198       -0.30180       -1.28601
H          6.11076        0.48773       -2.67916
H          6.70011        0.81284       -1.04670
