171
-217.84732115
P         -1.60546        0.43611       -0.35846
P          1.60568       -0.39766       -0.32420
C         -0.87975        1.36731       -1.71162
C          0.88684       -1.34719       -1.67026
C         -0.08140        0.73839       -2.65992
C          0.54579        1.52396       -3.64603
C          0.31995        2.89013       -3.66833
C         -0.49857        3.49064       -2.73541
C         -1.08935        2.72410       -1.75003
C          1.09166       -2.70551       -1.67532
C          0.50992       -3.49320       -2.64922
C         -0.29700       -2.91222       -3.60409
C         -0.51938       -1.54542       -3.61527
C          0.10088       -0.73829       -2.64210
Cl         1.59240        0.40601        2.82262
Cl        -1.57466       -0.27542        2.86999
C         -1.39955       -0.95762       -4.66256
C          1.43139        0.91136       -4.67416
H         -0.67267        4.55364       -2.77105
H         -1.71871        3.18610       -1.00653
H          1.70915       -3.15278       -0.91298
H          0.68261       -4.55693       -2.65942
H          0.79483        3.48528       -4.43007
H         -0.76647       -3.52354       -4.35633
C         -3.85890       -3.31682       -1.48593
C         -2.88068       -3.39001       -0.50137
C         -2.17885       -2.23121       -0.20028
C         -2.45258       -1.05833       -0.85822
C         -3.42193       -1.00017       -1.82860
C         -4.14970       -2.13694       -2.16116
H         -4.42826       -4.19506       -1.72503
H         -1.42499       -2.23798        0.56821
H         -3.61396       -0.05598       -2.30935
C         -4.39314        2.97400        2.16656
C         -4.92799        1.95548        1.38532
C         -4.05462        1.20643        0.60942
C         -2.70933        1.47540        0.60882
C         -2.19799        2.48867        1.38051
C         -3.03099        3.25454        2.18487
H         -5.05130        3.55496        2.78330
H         -4.42630        0.39188        0.01267
H         -1.13564        2.66644        1.37720
C          4.35132       -3.02543        2.14923
C          2.97791       -3.20230        2.26097
C          2.15573       -2.40165        1.47875
C          2.69415       -1.44674        0.65176
C          4.05306       -1.27216        0.56977
C          4.91365       -2.06683        1.31573
H          5.00309       -3.65011        2.73182
H          1.08545       -2.50592        1.52176
H          4.43687       -0.50377       -0.07677
C          3.85823        3.33730       -1.51930
C          2.88340        3.42592       -0.53282
C          2.18264        2.27115       -0.21356
C          2.46422        1.08495       -0.84434
C          3.43403        1.01189       -1.81353
C          4.15488        2.14569       -2.17057
H          4.41678        4.21525       -1.78336
H          1.41604        2.29195        0.54127
H          3.62616        0.06101       -2.28065
Pd        -0.01279        0.04998        1.29075
C         -1.12828       -5.11956       -0.04880
C         -2.56696       -4.67866        0.27158
C         -3.52675       -5.82191       -0.10927
C         -2.70570       -4.41168        1.78312
H         -0.41364       -4.33312        0.18909
H         -0.85413       -6.00854        0.51895
H         -1.02732       -5.35182       -1.10832
H         -3.30105       -6.72210        0.46235
H         -4.56162       -5.54941        0.09725
H         -3.43892       -6.07335       -1.16605
H         -2.50520       -5.31483        2.35917
H         -2.01098       -3.64318        2.11881
H         -3.71405       -4.07492        2.02261
C         -5.39071       -0.73672       -3.88776
C         -5.29703       -2.10328       -3.18078
C         -6.62412       -2.36322       -2.44461
C         -5.07557       -3.19041       -4.24954
H         -5.60333        0.06076       -3.17616
H         -4.46306       -0.49773       -4.40653
H         -6.19194       -0.73797       -4.62663
H         -6.62154       -3.33950       -1.96097
H         -6.79118       -1.60996       -1.67473
H         -7.46664       -2.33349       -3.13530
H         -5.07752       -4.18731       -3.81088
H         -5.86177       -3.16009       -5.00374
H         -4.12035       -3.04945       -4.75371
C         -6.95757        1.73363       -0.07132
C         -6.42350        1.60888        1.36811
C         -7.23857        2.54931        2.27602
C         -6.61086        0.16274        1.86459
H         -8.02317        1.50880       -0.11315
H         -6.81015        2.74470       -0.45037
H         -6.44650        1.04651       -0.74462
H         -8.29770        2.29368        2.24569
H         -6.91167        2.47435        3.31295
H         -7.14009        3.58631        1.95551
H         -7.66577       -0.11025        1.88360
H         -6.09448       -0.54764        1.21977
H         -6.21301        0.04798        2.87264
C         -3.48132        5.06871        3.91498
C         -2.41185        4.33131        3.08715
C         -1.67044        5.36165        2.21674
C         -1.41753        3.66126        4.05518
H         -3.02379        5.82990        4.54685
H         -4.20309        5.56728        3.26824
H         -4.01751        4.37898        4.56650
H         -0.86197        4.89319        1.65883
H         -2.34986        5.82249        1.50000
H         -1.23674        6.15179        2.82943
H         -0.97032        4.39421        4.72620
H         -1.91997        2.90791        4.66136
H         -0.61026        3.16701        3.51600
C          0.87617       -4.15380        3.33361
C          2.41083       -4.25272        3.22628
C          3.00195       -4.03229        4.63189
C          2.78196       -5.65595        2.71682
H          0.49052       -4.87123        4.05770
H          0.56947       -3.15872        3.65592
H          0.40261       -4.36912        2.37747
H          2.58006       -4.73826        5.34701
H          4.08302       -4.16402        4.63652
H          2.78480       -3.02419        4.98461
H          2.38854       -6.42830        3.37750
H          2.37389       -5.82346        1.72006
H          3.86300       -5.78019        2.66080
C          6.84787       -0.78735        0.26739
C          6.43854       -1.90183        1.25116
C          7.07442       -3.22329        0.78238
C          6.96796       -1.53579        2.64975
H          6.43416        0.17445        0.57018
H          7.93207       -0.68244        0.23020
H          6.50354       -1.00995       -0.74235
H          6.69106       -3.50808       -0.19731
H          8.15766       -3.12977        0.70703
H          6.85771       -4.03531        1.47545
H          8.04785       -1.38973        2.63260
H          6.50758       -0.61415        3.00530
H          6.74885       -2.31964        3.37379
C          2.40201        4.50309        1.69529
C          2.54447        4.74417        0.17831
C          1.21953        5.28242       -0.38405
C          3.64452        5.80199       -0.03645
H          2.22553        5.44002        2.22332
H          1.56821        3.84042        1.92150
H          3.30795        4.05288        2.10029
H          0.41956        4.55576       -0.24972
H          0.92715        6.20666        0.11398
H          1.30973        5.48611       -1.45073
H          3.72142        6.08635       -1.08548
H          3.42623        6.70719        0.53013
H          4.61392        5.42808        0.29276
C          5.04631        3.15867       -4.29402
C          5.29351        2.10258       -3.19995
C          5.40142        0.71954       -3.87173
C          6.62394        2.40246       -2.48537
H          4.08906        2.99168       -4.78583
H          5.03738        4.16630       -3.88068
H          5.82621        3.12062       -5.05439
H          5.62800       -0.05619       -3.14070
H          4.47438        0.45502       -4.37901
H          6.19864        0.71198       -4.61490
H          6.61080        3.39043       -2.02629
H          6.81201        1.67170       -1.69922
H          7.45929        2.36899       -3.18455
H         -0.87084       -0.87093       -5.61268
H          1.79628       -0.06582       -4.35488
H         -1.75042        0.03527       -4.37801
H         -2.27784       -1.58253       -4.82613
H          2.30042        1.54159       -4.86339
H          0.90136        0.78304       -5.61880
