72
-98.09171207
Fe        -0.01563        2.70318       -0.02878
P          1.92215       -0.08710       -0.00539
P         -1.87438       -0.13533        0.03623
C          1.41511        1.53153        0.70326
C          0.37513        1.73350        1.69950
C          0.26866        3.16015        1.94917
C          1.27535        3.83862        1.15370
C          1.98257        2.83182        0.38163
C         -1.40774        1.47549       -0.71227
C         -1.99034        2.77635       -0.41880
C         -1.32355        3.77177       -1.24161
C         -0.31572        3.08707       -2.03061
C         -0.38541        1.66862       -1.72600
C          3.29967       -0.80927        1.01826
C          4.56509       -0.59121        0.15836
C          2.86418        0.16857       -1.58550
C          4.30158        0.33903       -1.05535
C         -3.16702       -0.95548       -1.01443
C         -4.41553       -0.13811       -0.64422
C         -2.98736        0.17709        1.49520
C         -4.39400        0.29198        0.85407
H         -0.26404        0.95900        2.12185
H         -0.42843        3.63679        2.64240
H          1.46343        4.91414        1.13407
H          2.79401        3.01693       -0.32485
H         -2.80563        2.96430        0.28320
H          0.21781        0.88067       -2.17318
Cl         1.63804       -3.07574       -0.16769
Cl        -1.54275       -3.05638        0.40468
Pd         0.04929       -1.48935        0.06581
H          3.08696       -1.87952        1.12483
C          3.39035       -0.17959        2.40531
H          2.49848        1.08774       -2.05863
C          2.74779       -1.01530       -2.54722
H          4.94515       -1.55948       -0.19848
H          5.36827       -0.17976        0.78577
H          4.46895        1.38509       -0.75886
H          5.02426        0.14040       -1.86114
H         -1.53786        4.84249       -1.25812
H          0.35210        3.55155       -2.75969
H          4.35925       -0.43577        2.85625
H          3.54865       -0.94235       -3.29619
H         -3.26370       -1.96247       -0.58871
C         -2.82980       -1.06451       -2.50623
H         -2.67195        1.12715        1.94279
C         -2.92659       -0.93982        2.53608
H         -5.33096       -0.69951       -0.88699
H         -4.44733        0.76105       -1.27425
H         -4.78377        1.31477        0.96412
H         -5.09089       -0.33918        1.42285
H         -1.80037       -1.43494       -2.59962
H         -3.13690       -1.89333        2.03442
C          2.26665       -0.61795        3.32976
H          1.29372       -0.37982        2.90356
H          2.28607       -1.69737        3.49194
H          2.32513       -0.13531        4.30791
C          1.40747       -1.13403       -3.25480
H          0.59069       -1.26260       -2.54560
H          1.19199       -0.24465       -3.84983
H          1.37960       -1.99117       -3.93150
C         -2.99448        0.21593       -3.31222
H         -4.04130        0.51772       -3.37723
H         -2.44849        1.04690       -2.86873
H         -2.63221        0.10082       -4.33658
C         -1.61202       -1.02716        3.29247
H         -1.62567       -1.82074        4.04311
H         -0.78253       -1.24046        2.61945
H         -1.38843       -0.09285        3.81060
H          3.40169        0.91285        2.29774
H          2.96341       -1.93545       -1.98894
H         -3.45501       -1.84858       -2.95635
H         -3.75070       -0.80347        3.25034
