87
-129.17892783
P         -1.52558       -0.37031       -0.28506
P          1.77781        0.26112        0.46652
C         -0.99151        0.75285       -1.58395
C          1.62701       -0.96422       -0.85984
C          0.15257        0.45238       -2.31344
C          0.56196        1.33568       -3.33192
C         -0.19888        2.46444       -3.58939
C         -1.33603        2.73993       -2.85856
C         -1.72975        1.87935       -1.85272
C          2.24746       -2.15838       -0.57548
C          2.17074       -3.21578       -1.46127
C          1.45660       -3.07271       -2.63046
C          0.80800       -1.88725       -2.93045
C          0.89480       -0.80454       -2.03425
Cl         0.95722       -0.28230        3.54048
Cl        -1.91144       -1.02531        2.88182
H         -1.91289        3.62582       -3.06776
H         -2.61845        2.08369       -1.27913
H          2.78800       -2.26340        0.35363
H          2.66047       -4.14851       -1.23440
H          0.11430        3.13676       -4.37002
H          1.38669       -3.89523       -3.32199
C         -2.45707       -4.42809       -2.10300
C         -2.86755       -3.27223       -2.75268
C         -2.58000       -2.04478       -2.16623
C         -1.88985       -1.98447       -0.97800
C         -1.48882       -3.13438       -0.33937
C         -1.77184       -4.36266       -0.90574
H         -2.68241       -5.38423       -2.54381
C         -3.62648       -3.34429       -4.03075
H         -2.89084       -1.13100       -2.64595
H         -0.96315       -3.06876        0.59919
H         -1.45921       -5.26786       -0.41155
C         -5.31497        1.23880        1.66882
C         -5.34330        0.03675        0.99096
C         -4.19286       -0.44468        0.39597
C         -3.02629        0.27964        0.47545
C         -2.99653        1.47729        1.15049
C         -4.14039        1.97220        1.76514
H         -6.20940        1.61574        2.13485
H         -6.25889       -0.52840        0.92972
H         -4.19925       -1.38735       -0.12629
H         -2.07808        2.03481        1.20168
C         -4.10552        3.26926        2.49372
C          6.12382        0.18325        1.82306
C          5.12217        0.15002        2.77280
C          3.79935        0.16220        2.37743
C          3.48361        0.21092        1.04119
C          4.48008        0.24425        0.09220
C          5.81833        0.22157        0.46961
H          7.15663        0.17914        2.12750
H          5.37098        0.11392        3.82077
H          3.00643        0.12301        3.10386
H          4.21823        0.28027       -0.95266
C          6.89550        0.27987       -0.55574
C          0.78444        4.60065       -0.45491
C          1.72400        3.93725       -1.21870
C          2.03230        2.61922       -0.93946
C          1.38951        1.97388        0.09018
C          0.47791        2.64240        0.87528
C          0.15860        3.96891        0.61059
H          0.53450        5.62431       -0.67618
H          2.21100        4.44262       -2.03649
H          2.76147        2.08625       -1.52772
H          0.04012        2.14114        1.72171
C         -0.84675        4.69324        1.43365
Pd        -0.12052       -0.56799        1.57848
C          1.79256        1.08294       -4.13121
C          0.03212       -1.79008       -4.19851
H          2.39686        1.98773       -4.21127
H          2.41427        0.31198       -3.67444
H          1.54013        0.75820       -5.14138
H         -0.53964       -2.70220       -4.37478
H         -0.67490       -0.96038       -4.17330
H          0.69670       -1.64190       -5.05045
H         -4.69242       -3.47764       -3.84099
H         -3.50064       -2.43205       -4.61586
H         -3.28559       -4.18012       -4.64347
H         -3.21351        3.34113        3.11740
H         -4.10180        4.10721        1.79540
H         -4.97279        3.38075        3.14593
H          7.79123       -0.24218       -0.21617
H          6.57520       -0.18540       -1.48917
H          7.16904        1.31364       -0.77150
H         -1.81553        4.70977        0.93275
H         -0.97497        4.21881        2.40744
H         -0.54016        5.72568        1.60733
