111
-148.55587281
P         -1.59336        2.68861        1.07755
P         -0.41524       -0.19880        0.55836
C         -1.12221        1.63719        2.48190
C         -0.67649        0.35197        2.25446
C         -0.48291        4.16164        0.95696
C          0.38127        4.08253       -0.28383
C         -1.18001        2.12526        3.77164
H         -1.49187        3.14281        3.94149
C         -0.81496        1.31413        4.83234
H         -0.86369        1.69371        5.83990
C         -0.38229        0.02214        4.60155
H         -0.09273       -0.60675        5.42729
C         -0.30273       -0.45748        3.30638
H          0.06596       -1.45093        3.10437
Pd        -1.67780        1.24126       -0.72216
Cl        -2.76382        2.87491       -1.81447
Cl        -1.69918       -0.22320       -2.42256
C         -1.46604        5.34906        0.97079
C         -3.23022        3.52822        1.29434
H         -0.23793        4.02314       -1.18118
H          1.02399        4.96069       -0.38028
H          1.02049        3.19735       -0.27025
H         -1.64412        5.66913       -0.06502
H         -1.01171        6.21685        1.47241
H         -3.71255        3.49732        0.30852
C         -2.82335        4.97383        1.63208
C         -4.10627        2.84916        2.32568
H          0.13066        4.15615        1.86732
H         -2.74312        5.07515        2.72309
H         -3.61582        5.67491        1.32842
H         -5.07695        3.34301        2.41023
H         -4.28030        1.80184        2.06842
H         -3.64298        2.87070        3.31234
C         -0.66546       -4.70335       -0.04347
C         -1.85182       -3.92603       -0.07894
C         -1.75255       -2.56251        0.14718
C         -0.53215       -1.96647        0.32556
C          0.62567       -2.69672        0.25620
C          0.59756       -4.06294        0.03240
O         -0.74332       -6.12155       -0.05334
C         -3.23283       -4.54191       -0.35340
H         -2.63101       -1.94113        0.17796
H          1.56140       -2.17729        0.37281
C          1.92521       -4.82215       -0.11940
C          3.62074        1.33006       -0.89335
C          3.25503        1.49931        0.46693
C          2.03670        0.99345        0.88668
C          1.17465        0.40722       -0.00188
C          1.47311        0.34571       -1.33704
C          2.67290        0.83294       -1.82401
O          4.94402        1.62723       -1.31471
C          4.16504        2.20276        1.48529
H          1.74304        1.05153        1.91974
H          0.73235       -0.06875       -1.99873
C          2.92562        0.80992       -3.33906
C         -3.87404       -4.96857        0.97546
C         -4.15926       -3.51454       -1.04336
C         -3.12160       -5.75054       -1.30071
C          3.01183       -3.90300       -0.72477
C          2.39931       -5.30054        1.26095
C          1.77115       -6.02108       -1.07271
C         -0.82732       -6.70610        1.24010
H         -3.98257       -4.11396        1.64286
H         -4.86243       -5.39737        0.81214
H         -3.26566       -5.71154        1.48565
H         -4.42630       -2.69858       -0.37361
H         -3.67905       -3.09111       -1.92521
H         -5.08965       -3.98429       -1.36148
H         -2.62451       -5.46635       -2.22760
H         -2.54935       -6.55715       -0.84912
H         -4.10620       -6.14500       -1.55047
H          3.91320       -4.46988       -0.95664
H          2.65955       -3.44274       -1.64754
H          3.30172       -3.11091       -0.03589
H          2.54050       -4.45522        1.93409
H          1.67292       -5.96891        1.71716
H          3.34656       -5.83390        1.18518
H          1.39225       -5.69482       -2.04070
H          2.72652       -6.52022       -1.23271
H          1.07780       -6.75781       -0.67461
H          0.01762       -7.37710        1.39373
H         -0.82210       -5.93228        2.00877
H         -1.74426       -7.29002        1.31809
C          5.83342        0.51990       -1.24595
C          3.32564        2.87416        2.59631
C          5.09841        1.16843        2.13179
C          4.98962        3.31512        0.81254
C          1.59686        0.97248       -4.11315
C          3.83801        1.97335       -3.76753
C          3.56018       -0.53405       -3.72708
H          3.95850        3.47432        3.24963
H          2.57059        3.53184        2.16708
H          2.82424        2.13946        3.22459
H          5.72711        0.68600        1.38718
H          5.74933        1.63692        2.86954
H          4.52287        0.39104        2.63388
H          5.67105        2.90863        0.06915
H          4.33527        4.02819        0.31204
H          5.58657        3.85809        1.54486
H          1.78228        1.09095       -5.18035
H          0.95171        0.10315       -3.99622
H          1.05212        1.85109       -3.76843
H          3.96303        1.99551       -4.84980
H          3.41452        2.92740       -3.45521
H          4.82674        1.88655       -3.32407
H          3.74475       -0.58353       -4.79986
H          2.90327       -1.36119       -3.45903
H          4.50767       -0.68507       -3.21510
H          6.22070        0.29863       -2.24032
H          6.67530        0.76808       -0.59979
H          5.31906       -0.35787       -0.85245
