111
-148.55325945
P         -2.63791        1.84509        0.67698
P          0.21820        0.47817        0.43755
C         -1.66439        1.49446        2.17205
C         -0.39801        0.96179        2.05948
C         -3.74664        3.30304        0.96972
C         -3.54898        4.38887       -0.06436
C         -2.18830        1.75417        3.42311
H         -3.18705        2.14838        3.51262
C         -1.43731        1.49024        4.55559
H         -1.84716        1.69399        5.53138
C         -0.16562        0.96377        4.43758
H          0.41800        0.75528        5.31913
C          0.35307        0.69276        3.18461
H          1.33565        0.26178        3.07580
Pd        -1.11118        1.64019       -1.05809
Cl        -2.63657        2.60048       -2.39158
Cl         0.34915        1.28375       -2.72554
C         -5.15596        2.67375        0.95358
C         -3.89428        0.54042        0.29527
H         -2.50496        4.70641       -0.11349
H         -3.83265        4.03166       -1.05481
H         -4.16130        5.26717        0.15309
H         -5.87710        3.40052        0.55204
H         -5.48652        2.46816        1.98232
H         -3.59373        0.07468       -0.65358
C         -5.19300        1.35544        0.12966
C         -3.95423       -0.49500        1.39719
H         -3.49784        3.69078        1.96644
H         -6.05475        0.73819        0.42312
H         -5.34766        1.59634       -0.93252
H         -4.22813       -0.03148        2.34674
H         -4.69274       -1.27044        1.18019
H         -2.98669       -0.98100        1.53652
C         -1.51213       -3.64310       -0.43041
C         -1.13035       -2.79710       -1.50516
C         -0.59496       -1.55863       -1.20098
C         -0.37930       -1.17644        0.09619
C         -0.61895       -2.04236        1.13045
C         -1.14250       -3.30332        0.89874
O         -2.33605       -4.77197       -0.67329
C         -1.28743       -3.16298       -2.98973
H         -0.35578       -0.85876       -1.98310
H         -0.41189       -1.71457        2.13487
C         -1.28072       -4.25373        2.09941
C          4.76282        0.56075        0.17628
C          4.10087       -0.56188        0.73540
C          2.71868       -0.53383        0.81696
C          2.00106        0.52101        0.31582
C          2.62917        1.56177       -0.31582
C          4.00848        1.59139       -0.44133
O          6.17695        0.66515        0.25957
C          4.85716       -1.79005        1.26587
H          2.17734       -1.34515        1.27264
H          2.02063        2.34955       -0.72485
C          4.66246        2.73199       -1.23747
C          0.02104       -2.83088       -3.74086
C         -1.55939       -4.66266       -3.19755
C         -2.43754       -2.34107       -3.59599
C         -2.42222       -3.76860        3.00866
C         -1.54819       -5.70639        1.66926
C          0.03971       -4.25580        2.90107
C         -3.71833       -4.46458       -0.59811
H          0.22699       -1.76188       -3.74291
H          0.86838       -3.33644       -3.27863
H         -0.03591       -3.15156       -4.78068
H         -0.79025       -5.26329       -2.71326
H         -2.52048       -4.95051       -2.77807
H         -1.57291       -4.91648       -4.25724
H         -2.24740       -1.27267       -3.49725
H         -2.55856       -2.56333       -4.65577
H         -3.38066       -2.55719       -3.09769
H         -3.37139       -3.75706        2.47612
H         -2.53195       -4.41912        3.87593
H         -2.23119       -2.75868        3.37033
H         -2.51517       -5.80147        1.18105
H         -0.78593       -6.04621        0.96900
H         -1.54509       -6.37737        2.52795
H          0.87663       -4.53347        2.26091
H          0.25448       -3.27875        3.33079
H         -0.00590       -4.96964        3.72313
H         -3.96887       -3.69032       -1.32160
H         -4.29866       -5.36181       -0.81416
H         -3.96818       -4.10568        0.39903
C          6.64192        1.33965        1.42180
C          6.13811       -2.04484        0.45090
C          5.20502       -1.57291        2.74621
C          3.98620       -3.06198        1.14679
C          4.96630        3.90479       -0.29339
C          5.95453        2.25655       -1.92660
C          3.71504        3.22846       -2.35402
H          6.64124       -2.95202        0.78459
H          5.90357       -2.15632       -0.60718
H          6.84217       -1.22251        0.55144
H          4.30123       -1.42086        3.33592
H          5.73319       -2.43461        3.15364
H          5.83720       -0.69823        2.87841
H          3.13588       -3.03296        1.82650
H          3.61032       -3.18142        0.13091
H          4.56402       -3.95155        1.39657
H          4.05222        4.26930        0.17472
H          5.64750        3.60621        0.49979
H          5.42223        4.73349       -0.83453
H          6.38205        3.04520       -2.54523
H          6.70798        1.96452       -1.19934
H          5.75439        1.39602       -2.56409
H          4.22295        3.93872       -3.00591
H          2.84241        3.73669       -1.94681
H          3.37055        2.39687       -2.96821
H          5.80161        1.64727        2.04544
H          7.29464        0.67812        1.99116
H          7.21860        2.21700        1.12952
