111
-148.55495849
P         -1.70554        2.75764        0.29641
P         -0.48993       -0.15095        0.53708
C         -1.38422        2.04354        1.93507
C         -0.93082        0.74542        2.03889
C         -0.56853        4.18057       -0.02287
C          0.36714        3.86923       -1.17166
C         -1.56317        2.80110        3.07507
H         -1.87826        3.82791        2.98719
C         -1.31318        2.24621        4.31831
H         -1.45661        2.83665        5.20851
C         -0.87408        0.94002        4.41951
H         -0.67367        0.51014        5.38709
C         -0.67167        0.19056        3.27474
H         -0.29378       -0.81772        3.33403
Pd        -1.61220        0.95773       -1.16116
Cl        -2.83623        2.19541       -2.57002
Cl        -1.29965       -0.89979       -2.38828
C         -1.52988        5.35593       -0.29146
C         -3.34144        3.62294        0.19992
H          0.98809        2.99742       -0.95578
H         -0.19792        3.64923       -2.07974
H          1.02944        4.71101       -1.38713
H         -1.61870        5.49510       -1.37759
H         -1.10227        6.29525        0.09037
H         -3.73057        3.41817       -0.80566
C         -2.94243        5.10539        0.30991
C         -4.32448        3.14084        1.24570
H         -0.01158        4.33937        0.90979
H         -2.95180        5.39954        1.36831
H         -3.69639        5.74139       -0.17879
H         -3.95793        3.33806        2.25327
H         -5.28952        3.64277        1.14586
H         -4.49238        2.06458        1.16339
C         -0.48843       -4.68906        0.89322
C         -1.65419       -4.02594        0.42549
C         -1.62690       -2.64446        0.32452
C         -0.53122       -1.92785        0.72766
C          0.54904       -2.55399        1.29301
C          0.58456       -3.93167        1.43406
O         -0.36165       -6.09423        0.74547
C         -2.94590       -4.75083        0.01147
H         -2.45906       -2.11040       -0.10213
H          1.38252       -1.95015        1.61182
C          1.78322       -4.54565        2.17699
C          3.58701        1.35649       -0.82655
C          2.87463        0.42434       -1.62354
C          1.63901       -0.00945       -1.17617
C          1.14736        0.38429        0.03909
C          1.87445        1.20787        0.85744
C          3.11609        1.68295        0.47112
O          4.74751        1.99263       -1.34242
C          3.38921       -0.07960       -2.98007
H          1.01347       -0.62961       -1.79394
H          1.44767        1.49408        1.80219
C          3.90766        2.57366        1.44095
C         -3.07399       -4.72508       -1.52089
C         -2.98738       -6.20653        0.50804
C         -4.16278       -4.02932        0.63179
C          3.03396       -4.46317        1.28598
C          2.03769       -3.75412        3.47921
C          1.53496       -6.00875        2.58314
C          0.23033       -6.46551       -0.48852
H         -3.99719       -5.20587       -1.84312
H         -3.08013       -3.70133       -1.89380
H         -2.24276       -5.24391       -1.99412
H         -3.94862       -6.66984        0.28688
H         -2.21623       -6.80787        0.03264
H         -2.82825       -6.24989        1.58491
H         -4.27961       -3.02084        0.23885
H         -5.08483       -4.56899        0.41716
H         -4.05799       -3.96030        1.71417
H          2.89816       -5.02429        0.36349
H          3.25330       -3.43036        1.01664
H          3.90534       -4.86819        1.79986
H          1.13979       -3.73063        4.09614
H          2.83485       -4.21324        4.06336
H          2.33475       -2.72631        3.27752
H          2.35420       -6.39219        3.19092
H          0.61414       -6.09670        3.15867
H          1.44500       -6.65101        1.71041
H          1.22583       -6.03279       -0.57147
H          0.30395       -7.55202       -0.53958
H         -0.37703       -6.10645       -1.31759
C          4.48383        3.19936       -2.04791
C          4.92662       -0.15056       -3.00148
C          2.86904       -1.50840       -3.26094
C          2.88273        0.85324       -4.09084
C          3.57910        2.21016        2.90725
C          5.42387        2.37938        1.25929
C          3.52857        4.04385        1.20627
H          5.28657       -0.56531       -3.94271
H          5.37181        0.83415       -2.88482
H          5.29257       -0.78020       -2.19116
H          3.09555       -2.17402       -2.42836
H          1.79287       -1.52110       -3.42662
H          3.33449       -1.92065       -4.15587
H          1.79335        0.88481       -4.09949
H          3.24115        1.86966       -3.94679
H          3.21856        0.51310       -5.07003
H          3.71358        1.14289        3.08159
H          4.23305        2.74656        3.59443
H          2.55560        2.47477        3.16918
H          5.69375        1.33115        1.38331
H          5.74851        2.69217        0.27008
H          5.98411        2.96281        1.98951
H          4.07535        4.70072        1.88224
H          2.46335        4.19823        1.37517
H          3.74952        4.35118        0.18706
H          5.01289        4.02462       -1.57164
H          4.84460        3.11099       -3.07252
H          3.41397        3.41013       -2.05681
