105
-153.06685030
Cl         0.02268        1.99055        3.04421
Pd        -0.47918        1.30226        0.95560
P         -1.10595        0.48064       -1.15866
N         -0.71611       -1.03557       -1.96642
C          0.19509       -2.02734       -1.60695
C          0.32854       -2.49060       -0.27379
C          1.28726       -3.48302        0.01854
C          1.40542       -3.98802        1.43722
C          2.23235       -5.27370        1.59406
C          3.50244       -5.21634        0.74064
C          3.14728       -5.04917       -0.74404
C          2.08791       -4.00697       -1.00036
C          1.89956       -3.57347       -2.30665
C          0.96979       -2.61316       -2.60720
H          0.84882       -2.27453       -3.62140
H          2.50687       -3.99664       -3.08884
H          4.04384       -4.79200       -1.32271
H          4.12008       -4.36947        1.06536
H          2.48086       -5.45245        2.64975
H          1.84876       -3.19337        2.04817
C         -0.66896       -2.11597        0.75722
C         -0.24312       -1.51642        1.97397
C         -1.17427       -1.37146        3.00675
C         -2.47366       -1.77760        2.84856
C         -2.91160       -2.35436        1.66258
C         -4.34800       -2.81379        1.58531
C         -4.81288       -3.20504        0.17333
C         -3.73321       -4.01365       -0.55026
C         -2.43565       -3.20111       -0.66979
C         -2.00836       -2.52633        0.61136
H         -1.62136       -3.84644       -1.02225
H         -4.08544       -4.33778       -1.53981
H         -5.03268       -2.29958       -0.40542
H         -4.99318       -2.02556        1.99310
H         -3.17575       -1.65215        3.65546
H         -0.86114       -0.90708        3.92536
N          1.05351       -1.00982        2.14777
P          1.60333        0.20084        0.99043
C          2.61294       -0.36386       -0.36674
C          2.40500        0.18299       -1.60820
C          3.22306       -0.18098       -2.66188
C          4.26408       -1.07958       -2.46787
C          4.46573       -1.60750       -1.19891
C          3.64517       -1.24276       -0.14652
H          3.80138       -1.63886        0.84431
H          5.26622       -2.30975       -1.04084
C          5.11803       -1.50659       -3.61008
H          3.05295        0.22752       -3.64322
H          1.59659        0.88054       -1.74651
C          2.53997        1.51910        1.77131
C          3.26054        1.27537        2.91561
C          3.98497        2.29851        3.50008
C          3.99967        3.56678        2.93485
C          3.26655        3.79076        1.77726
C          2.54356        2.76662        1.19299
H          1.97647        2.93624        0.29068
H          3.26193        4.77362        1.33791
C          4.75281        4.67723        3.58071
H          4.54249        2.11767        4.40318
H          3.25906        0.28712        3.34597
H          1.21069       -0.56919        3.04491
H         -0.98521       -0.95161       -2.93862
C         -0.61794        1.84951       -2.22158
C         -0.87611        3.14151       -1.83052
C         -0.49054        4.19935       -2.63120
C          0.16249        3.97136       -3.83444
C          0.40044        2.66072       -4.22475
C          0.01088        1.60559       -3.42047
H          0.21085        0.59097       -3.72104
H          0.89424        2.47157       -5.16263
C          0.56009        5.10865       -4.70965
H         -0.69624        5.21101       -2.32560
H         -1.38612        3.31586       -0.89785
C         -2.90189        0.51280       -1.09684
C         -3.59118        0.27574        0.06709
C         -4.97297        0.31331        0.07128
C         -5.67650        0.55842       -1.09928
C         -4.96417        0.79038       -2.26785
C         -3.58070        0.76657       -2.26516
H         -3.02486        0.94967       -3.17153
H         -5.49897        0.99546       -3.17943
C         -7.16438        0.61169       -1.09027
H         -5.51493        0.15624        0.98801
H         -3.04359        0.07823        0.97429
Cl        -2.29725        2.63494        1.01100
H          2.80033       -6.00643       -1.15109
H          1.62728       -6.13522        1.28485
H          4.12103       -6.11113        0.89886
H          0.39674       -4.14038        1.84153
H         -3.53418       -4.93639        0.00907
H         -2.55671       -2.43131       -1.44057
H         -4.47261       -3.66829        2.26122
H         -5.75829       -3.76437        0.21296
H          5.21774       -0.70842       -4.34699
H          6.12076       -1.77414       -3.27394
H          4.68785       -2.37520       -4.11059
H          5.12601        5.38375        2.83799
H          4.11412        5.22462        4.27519
H          5.61093        4.29976        4.13857
H         -0.24450        5.36572       -5.39993
H          0.79404        5.99604       -4.11982
H          1.44387        4.86145       -5.29950
H         -7.51395        1.61374       -0.83822
H         -7.57462        0.34712       -2.06585
H         -7.57780       -0.08348       -0.35809
