58
-89.86094942
P          1.58036        0.19895        0.84748
C          1.98083        1.88223        0.37241
C          3.27748        2.23403        0.07637
C          3.56714        3.53265       -0.30188
C          2.55406        4.46815       -0.38254
C          1.25370        4.10880       -0.08768
C          0.96824        2.80982        0.29067
H         -0.04372        2.51199        0.50976
H          4.05547        1.49037        0.13613
C          3.06704       -0.82535        0.87462
C          3.75579       -1.02919        2.05056
C          4.89852       -1.80898        2.05736
C          5.35209       -2.37900        0.88486
C          4.66793       -2.16618       -0.29437
C          3.52757       -1.38599       -0.29454
H          2.99996       -1.19180       -1.21242
H          3.40632       -0.57636        2.96321
C          0.81225        0.21005        2.51561
C          0.21118       -1.15965        2.81491
C         -1.26156       -1.27256        2.45055
P         -1.68153       -0.64052        0.76775
C         -3.01434       -1.65734        0.12818
C         -2.75666       -2.96898       -0.19747
C         -3.77213       -3.76371       -0.69943
C         -5.03751       -3.23728       -0.86985
C         -5.29053       -1.92013       -0.54061
C         -4.27329       -1.12797       -0.03973
H         -4.45404       -0.09672        0.21699
H         -1.76048       -3.36225       -0.06725
C         -2.15713        1.10252        0.76253
C         -2.28288        1.84643        1.91471
C         -2.60123        3.18979        1.83569
C         -2.79866        3.78262        0.60462
C         -2.68561        3.03338       -0.54862
C         -2.36574        1.69141       -0.46470
H         -2.26341        1.09263       -1.35602
H         -2.13843        1.38233        2.87552
Pd         0.03899       -0.39854       -0.79364
Cl         1.61865       -0.04666       -2.34991
Cl        -1.49249       -0.94609       -2.35115
H         -1.59801       -2.31131        2.49712
H         -1.88309       -0.72100        3.15761
H          0.78741       -1.91976        2.26638
H          0.34471       -1.41367        3.87861
H          1.58921        0.49215        3.22911
H          0.05856        0.99607        2.55269
H          4.58112        3.81185       -0.53667
H          0.46101        4.83555       -0.15598
H          5.43507       -1.96977        2.97807
H          5.02329       -2.60223       -1.21358
H         -3.57349       -4.79004       -0.96096
H         -6.27705       -1.50836       -0.67663
H         -2.69492        3.77413        2.73637
H         -2.84036        3.49198       -1.51138
H          2.77828        5.47961       -0.67980
H          6.24257       -2.98631        0.88946
H         -5.82839       -3.85478       -1.26343
H         -3.04447        4.83032        0.54419
