171
-217.83613913
P         -1.52501        0.25705       -0.34533
P          1.63047       -0.78207        0.33452
C         -0.53450        0.88261       -1.71385
C          0.87258       -1.87944       -0.88291
C          0.26584       -0.00706       -2.41964
C          1.06021        0.47610       -3.47681
C          0.99313        1.82017       -3.80801
C          0.17992        2.68581       -3.10619
C         -0.58304        2.21096       -2.05787
C          0.84592       -3.20485       -0.51720
C          0.22749       -4.13878       -1.32571
C         -0.38233       -3.72873       -2.49140
C         -0.38561       -2.39602       -2.86705
C          0.26754       -1.44788       -2.05735
Cl         0.75285       -0.76881        3.45774
Cl        -2.33264       -1.23100        2.46975
C         -1.10494       -2.00334       -4.10898
C          1.94963       -0.44333       -4.23944
H          0.14277        3.72979       -3.37141
H         -1.22015        2.87983       -1.50623
H          1.30477       -3.50472        0.41360
H          0.21285       -5.17796       -1.04037
H          1.58452        2.18793       -4.62916
H         -0.87546       -4.44809       -3.12324
C         -4.54017       -2.63026       -2.11267
C         -4.38231       -1.37941       -2.69833
C         -3.44944       -0.51603       -2.13716
C         -2.73808       -0.88057       -1.01961
C         -2.91237       -2.11797       -0.45403
C         -3.81298       -3.02465       -0.99653
H         -5.25052       -3.32010       -2.52776
H         -3.26102        0.44126       -2.59185
H         -2.34049       -2.36987        0.42026
C         -3.76212        3.74139        1.57461
C         -2.93050        2.97557        2.37929
C         -2.24778        1.92029        1.79103
C         -2.40648        1.62563        0.45647
C         -3.25926        2.38162       -0.31157
C         -3.93447        3.47108        0.22363
H         -4.29355        4.56054        2.02105
H         -1.59807        1.31525        2.39308
H         -3.40112        2.12301       -1.34567
C          5.52627       -2.70503        1.61686
C          5.20131       -2.65116        0.26729
C          3.98262       -2.08309       -0.08306
C          3.14303       -1.58229        0.88197
C          3.48347       -1.64154        2.20888
C          4.68558       -2.21048        2.60623
H          6.46260       -3.14581        1.90617
H          3.67480       -2.02823       -1.11358
H          2.79145       -1.24909        2.93035
C          3.00053        3.42809       -0.65956
C          3.64632        2.34136       -1.23664
C          3.16347        1.07276       -0.94518
C          2.08293        0.90333       -0.11479
C          1.46379        1.99121        0.45688
C          1.91486        3.27917        0.19625
H          3.36771        4.41498       -0.86425
H          3.65822        0.20433       -1.34419
H          0.63606        1.83909        1.12625
Pd        -0.37911       -0.60936        1.53397
C         -5.96010        0.37549       -3.54281
C         -5.20914       -0.91835       -3.90912
C         -6.24426       -1.97942       -4.32924
C         -4.27745       -0.64498       -5.10372
H         -6.58889        0.22119       -2.66613
H         -5.26449        1.18384       -3.32186
H         -6.59820        0.70310       -4.36335
H         -6.83326       -1.63030       -5.17730
H         -5.75666       -2.90727       -4.62778
H         -6.93496       -2.19692       -3.51470
H         -3.52571        0.10374       -4.85637
H         -3.76227       -1.55451       -5.40984
H         -4.84248       -0.27867       -5.96070
C         -5.48830       -4.52868        0.10167
C         -4.03239       -4.41531       -0.38476
C         -3.09496       -4.66150        0.81450
C         -3.75273       -5.49328       -1.44784
H         -5.70635       -3.75933        0.84216
H         -6.19089       -4.40873       -0.72221
H         -5.67254       -5.50040        0.55944
H         -3.27888       -3.94121        1.61134
H         -3.24996       -5.65732        1.22916
H         -2.04942       -4.58677        0.51667
H         -4.42064       -5.39216       -2.30231
H         -2.72892       -5.41713       -1.81197
H         -3.88935       -6.49254       -1.03483
C         -2.30622        4.72983        4.06288
C         -2.81225        3.28791        3.87824
C         -1.83270        2.32960        4.58591
C         -4.19664        3.13542        4.53459
H         -2.99764        5.45200        3.63047
H         -2.19086        4.97052        5.11953
H         -1.33956        4.86269        3.57956
H         -2.16627        1.29533        4.50352
H         -0.83221        2.40298        4.16167
H         -1.75794        2.56696        5.64687
H         -4.57807        2.12417        4.39435
H         -4.14484        3.33171        5.60535
H         -4.91814        3.82798        4.10274
C         -5.29696        5.61052        0.01994
C         -4.86655        4.30120       -0.67000
C         -6.12138        3.46989       -0.98584
C         -4.14073        4.66737       -1.98036
H         -4.42857        6.20249        0.30896
H         -5.90619        6.21797       -0.64929
H         -5.89232        5.41141        0.91057
H         -6.65723        3.21817       -0.07084
H         -6.80146        4.01783       -1.63777
H         -5.85591        2.53739       -1.48127
H         -3.21323        5.19998       -1.77050
H         -3.89501        3.78189       -2.56490
H         -4.76373        5.30835       -2.60391
C          7.52399       -2.46104       -0.66104
C          6.17762       -3.19876       -0.78302
C          5.64250       -2.99731       -2.21497
C          6.38556       -4.70521       -0.54492
H          7.97414       -2.61561        0.31878
H          8.23127       -2.81377       -1.41148
H          7.38949       -1.38882       -0.80206
H          6.34945       -3.38221       -2.94979
H          4.69883       -3.52308       -2.35956
H          5.48623       -1.94025       -2.43015
H          7.06310       -5.12782       -1.28665
H          6.80917       -4.89490        0.44068
H          5.43762       -5.23909       -0.60999
C          4.02755       -1.69848        5.01090
C          5.10095       -2.29918        4.08157
C          6.41400       -1.52179        4.28701
C          5.30495       -3.77644        4.46456
H          3.07979       -2.22664        4.90901
H          4.33444       -1.77007        6.05417
H          3.86033       -0.64494        4.78806
H          7.22110       -1.94188        3.68796
H          6.29176       -0.47790        3.99860
H          6.72465       -1.54962        5.33129
H          6.09324       -4.23526        3.86895
H          5.58160       -3.87268        5.51433
H          4.38937       -4.34511        4.30309
C          4.74263        1.75695       -3.42522
C          4.92069        2.48596       -2.08184
C          6.09853        1.86019       -1.31188
C          5.24764        3.96303       -2.37344
H          5.63239        1.86091       -4.04601
H          4.56546        0.69257       -3.27846
H          3.89899        2.17030       -3.97605
H          7.02625        1.94702       -1.87714
H          6.23865        2.35692       -0.35205
H          5.92259        0.80274       -1.11684
H          4.42464        4.44910       -2.89728
H          5.44579        4.51208       -1.45318
H          6.13490        4.04575       -3.00110
C          1.35887        4.25703        2.43273
C          1.26534        4.47511        0.91108
C         -0.20953        4.59286        0.49316
C          1.97119        5.80138        0.56795
H          2.39675        4.12878        2.73930
H          0.95096        5.10896        2.97582
H          0.80879        3.36870        2.73894
H         -0.69983        5.41729        1.01041
H         -0.29325        4.77240       -0.57807
H         -0.75512        3.68190        0.72799
H          3.02067        5.77484        0.86065
H          1.91290        6.01252       -0.49969
H          1.50364        6.63421        1.09319
H         -2.10445       -2.43970       -4.12116
H          2.72255        0.10546       -4.77874
H         -0.57660       -2.35511       -4.99620
H         -1.21482       -0.92098       -4.18491
H          1.38216       -1.01701       -4.97261
H          2.44695       -1.14846       -3.57134
