87
-129.18350066
P         -1.51930       -0.26099       -0.42416
P          1.70887        0.29587        0.23917
C         -1.08103        0.97912       -1.64719
C          1.51853       -0.80552       -1.18626
C          0.01539        0.74068       -2.46562
C          0.36700        1.70603       -3.43008
C         -0.40437        2.85121       -3.54602
C         -1.49494        3.06357       -2.72776
C         -1.83097        2.12224       -1.77475
C          2.13897       -2.02261       -1.02621
C          2.03861       -2.99404       -2.00335
C          1.29766       -2.74345       -3.13716
C          0.64662       -1.53438       -3.31198
C          0.76388       -0.53571       -2.32586
Cl         0.95904       -0.29086        3.38080
Cl        -1.70634       -1.80806        2.43379
H         -2.07998        3.96305       -2.82777
H         -2.68261        2.27591       -1.13324
H          2.69924       -2.21412       -0.12300
H          2.52870       -3.94501       -1.87382
H         -0.13584        3.58711       -4.28481
H          1.20455       -3.50091       -3.89691
C         -2.44886       -4.17819       -2.53059
C         -1.63363       -4.19275       -1.40699
C         -1.38067       -2.99184       -0.75617
C         -1.90476       -1.81424       -1.23540
C         -2.70740       -1.80650       -2.35196
C         -2.98490       -2.99540       -3.00092
H         -2.66201       -5.10486       -3.03560
C         -1.06508       -5.46433       -0.88377
H         -0.77030       -2.98297        0.13070
H         -3.10429       -0.87079       -2.71361
H         -3.61382       -2.99696       -3.87604
C         -5.16519        1.11270        1.94258
C         -5.23029       -0.03602        1.17978
C         -4.12589       -0.44637        0.45775
C         -2.96864        0.29561        0.49708
C         -2.90185        1.43964        1.25779
C         -3.99857        1.86283        1.99838
H         -6.02403        1.43435        2.50668
H         -6.13861       -0.61529        1.15088
H         -4.15933       -1.34865       -0.13057
H         -1.99200        2.01332        1.27558
C         -3.92285        3.10452        2.81516
C          6.07068       -0.01639        1.51798
C          5.74137        0.17613        0.19080
C          4.41358        0.26913       -0.18420
C          3.42637        0.16426        0.76862
C          3.75559       -0.02630        2.08899
C          5.08256       -0.11290        2.48746
H          7.10343       -0.09518        1.81229
H          6.51753        0.25168       -0.55304
H          4.14122        0.41195       -1.21817
H          2.97115       -0.11468        2.81874
C          5.43139       -0.34747        3.91530
C          0.79381        4.71813       -0.28577
C          1.66149        4.09275       -1.15901
C          1.94866        2.74996       -1.00141
C          1.35634        2.04329        0.01806
C          0.52203        2.67266        0.91352
C          0.22290        4.02226        0.77061
H          0.55902        5.76120       -0.41299
H          2.10768        4.64738       -1.96813
H          2.62038        2.24550       -1.67677
H          0.13514        2.12130        1.75369
C         -0.70659        4.70303        1.71179
Pd        -0.13063       -0.55445        1.44144
C          1.54952        1.52564       -4.31660
C         -0.17535       -1.32849       -4.53731
H          2.18528        0.70859       -3.97347
H          1.23927        1.30559       -5.33883
H          2.15970        2.42975       -4.33914
H          0.45776       -1.11388       -5.39904
H         -0.76130       -2.21984       -4.76584
H         -0.87471       -0.50070       -4.41626
H         -1.00798       -6.22365       -1.66493
H         -0.05650       -5.31056       -0.49695
H         -1.67989       -5.85845       -0.07346
H         -2.98908        3.14365        3.37769
H         -3.97517        3.99040        2.18083
H         -4.74242        3.15757        3.53308
H          6.37668        0.13187        4.17365
H          4.66388        0.05451        4.57833
H          5.52664       -1.41468        4.12008
H         -0.77715        4.16252        2.65664
H         -0.36644        5.71528        1.93483
H         -1.70767        4.77090        1.28395
