87
-129.18903509
P         -1.63145       -0.35856       -0.21989
P          1.61344        0.36503       -0.09070
C         -1.35915        0.92870       -1.45408
C          1.42688       -0.68967       -1.53824
C         -0.35900        0.82324       -2.41640
C         -0.14143        1.90556       -3.29155
C         -0.94176        3.03059       -3.19118
C         -1.93685        3.11142       -2.24168
C         -2.13742        2.05833       -1.37162
C          2.21858       -1.80847       -1.63251
C          2.08106       -2.67158       -2.70140
C          1.13867       -2.40993       -3.67245
C          0.32752       -1.29034       -3.59715
C          0.47888       -0.40165       -2.51433
Cl         1.26462        0.75283        3.10229
Cl        -1.47081       -0.97450        2.96814
H         -2.54854        3.99590       -2.17096
H         -2.90795        2.12037       -0.62167
H          2.94974       -2.00986       -0.86761
H          2.70208       -3.54959       -2.77111
H         -0.77207        3.85375       -3.86439
H          1.02000       -3.08523       -4.50278
C         -1.38129       -4.56133       -1.92637
C         -0.63046       -4.23660       -0.80483
C         -0.73232       -2.95040       -0.28985
C         -1.55801       -2.02330       -0.88270
C         -2.30939       -2.35639       -1.98503
C         -2.22160       -3.63283       -2.50919
H         -1.29978       -5.55087       -2.34276
C          0.30573       -5.21898       -0.19440
H         -0.15531       -2.67535        0.57642
H         -2.94536       -1.61269       -2.43900
H         -2.80115       -3.89898       -3.37787
C         -5.54946        0.38583        1.98176
C         -5.43546       -0.69458        1.12940
C         -4.24848       -0.92161        0.45880
C         -3.18572       -0.06887        0.64483
C         -3.29653        1.00656        1.49628
C         -4.48435        1.25489        2.17311
H         -6.46978        0.55922        2.51302
H         -6.26879       -1.36379        0.99084
H         -4.14315       -1.76625       -0.20190
H         -2.44892        1.65354        1.65271
C         -4.58600        2.39824        3.12009
C          5.19772       -0.99644        2.36960
C          5.22700        0.23168        1.73881
C          4.14421        0.64680        0.98692
C          3.04220       -0.16736        0.87128
C          3.00904       -1.38945        1.50305
C          4.09161       -1.82712        2.25600
H          6.03604       -1.31784        2.96391
H          6.09031        0.86921        1.83732
H          4.14933        1.60729        0.49858
H          2.13141       -2.00927        1.42160
C          4.03685       -3.13519        2.96332
C          1.83387        4.76073       -1.21108
C          2.69112        3.85576       -1.80607
C          2.63201        2.51859       -1.45932
C          1.72379        2.10321       -0.51422
C          0.87683        3.00341        0.08963
C          0.90908        4.34708       -0.26210
H          1.87571        5.80178       -1.48246
H          3.40095        4.18934       -2.54515
H          3.27960        1.79435       -1.92827
H          0.17632        2.66241        0.83304
C         -0.01179        5.31813        0.38843
Pd        -0.06301       -0.05451        1.48092
C          0.93337        1.86984       -4.32215
C         -0.68698       -1.05478       -4.66185
H          1.65569        1.07832       -4.11988
H          0.51486        1.70023       -5.31492
H          1.48002        2.81358       -4.34584
H         -0.21287       -0.70808       -5.58084
H         -1.22991       -1.97284       -4.89090
H         -1.42057       -0.30755       -4.35742
H         -0.02231       -6.24334       -0.37618
H          1.30826       -5.10656       -0.60973
H          0.37188       -5.07819        0.88548
H         -5.62027        2.72498        3.23666
H         -4.20730        2.11827        4.10405
H         -4.00591        3.25218        2.76699
H          3.55694       -3.02706        3.93696
H          3.46920       -3.86834        2.38821
H          5.03691       -3.54075        3.12284
H         -0.22561        6.16106       -0.27026
H         -0.96277        4.84646        0.64112
H          0.42484        5.70961        1.30821
