75
-122.81256207
P          1.77987       -0.63822        0.10826
C          3.07902       -1.38088       -0.89618
C          4.36913       -1.37197       -0.41622
C          5.38267       -1.95804       -1.15266
C          5.09443       -2.55929       -2.36145
C          3.79613       -2.58256       -2.83030
C          2.78516       -1.99630       -2.09131
H          1.76726       -2.01734       -2.44511
H          3.56962       -3.05622       -3.77138
H          5.88308       -3.01504       -2.93766
H          6.39408       -1.94792       -0.78090
H          4.57560       -0.92208        0.54232
C          1.74403       -1.57609        1.64769
C          1.41009       -0.96275        2.83324
C          1.47486       -1.66848        4.01996
C          1.86880       -2.99160        4.01131
C          2.19463       -3.60852        2.81982
C          2.13434       -2.89618        1.63560
H          2.40242       -3.36122        0.70041
H          2.49942       -4.64206        2.81172
H          1.91533       -3.54535        4.93476
H          1.20957       -1.18828        4.94743
H          1.08090        0.06233        2.82184
C          2.16978        1.08019        0.49940
C          3.34562        1.71318        0.17048
C          3.52155        3.06299        0.44117
C          2.47371        3.77174        1.02773
C          1.28454        3.15515        1.34703
C          1.12830        1.78507        1.08386
O         -0.07704        1.12202        1.36224
C         -1.24965        1.81463        1.02170
C         -1.40025        3.18163        1.30352
C         -2.57214        3.81798        0.95787
C         -3.60554        3.13621        0.31548
C         -3.42518        1.79593        0.00136
C         -2.26570        1.14745        0.35549
P         -1.88506       -0.53364       -0.14882
C         -1.61022       -1.59112        1.27646
C         -1.88635       -1.13555        2.54521
C         -1.79044       -1.99927        3.62069
C         -1.42463       -3.31490        3.41503
C         -1.15073       -3.76770        2.13954
C         -1.24790       -2.90173        1.06503
H         -1.05870       -3.24433        0.05961
H         -0.86261       -4.79367        1.98000
H         -1.34589       -3.98824        4.25286
H         -2.00005       -1.64503        4.61651
H         -2.17887       -0.10789        2.68718
C         -3.31440       -1.23392       -1.00451
C         -4.26131       -1.88278       -0.24330
C         -5.37550       -2.43699       -0.84745
C         -5.53787       -2.33566       -2.21447
C         -4.59268       -1.67722       -2.97477
C         -3.48359       -1.12370       -2.36492
H         -2.75931       -0.57984       -2.94460
H         -4.72237       -1.58781       -4.04088
H         -6.40493       -2.76700       -2.68763
H         -6.11389       -2.94745       -0.25123
H         -4.12328       -1.95608        0.82374
Pd         0.06086       -0.03169       -1.43533
Cl        -1.41159        1.05731       -2.74546
Cl         1.76912        0.91828       -2.56597
H         -4.18476        1.26362       -0.54457
C         -4.84601        3.84766       -0.09192
H         -4.74431        4.25474       -1.09867
H         -5.06695        4.67358        0.58540
H         -5.70455        3.17484       -0.08577
H         -2.68142        4.86557        1.17638
S         -0.06225        4.04984        2.07958
H          2.58644        4.82326        1.22450
C          4.78030        3.75245        0.05202
H          4.12304        1.16634       -0.33192
H          4.97195        4.61455        0.69214
H          5.63656        3.08163        0.13362
H          4.72456        4.10347       -0.97914
