58
-89.85844705
P          1.59167       -0.15760        0.72105
C          2.59383        1.28831        1.07989
C          3.11466        1.49454        2.33740
C          3.88460        2.61680        2.58584
C          4.13380        3.52074        1.57176
C          3.62215        3.30234        0.30812
C          2.85336        2.17975        0.06434
H          2.47151        1.97448       -0.92240
H          2.92636        0.77535        3.11783
C          2.59115       -1.45794       -0.00910
C          3.92448       -1.24249       -0.27122
C          4.68157       -2.24450       -0.85060
C          4.09501       -3.45470       -1.16484
C          2.75523       -3.66471       -0.90336
C          2.00043       -2.66052       -0.32418
H          0.95114       -2.80715       -0.12321
H          4.36520       -0.28919       -0.02861
C          0.76532       -0.82131        2.21985
C         -0.08037        0.20372        2.96161
C         -0.90905        1.10617        2.05734
P         -1.71534        0.23606        0.64574
C         -2.13425       -1.47256        0.99993
C         -1.81295       -2.45233        0.08710
C         -2.10953       -3.77394        0.36555
C         -2.73355       -4.10253        1.55291
C         -3.06615       -3.11442        2.45887
C         -2.76617       -1.79306        2.17952
H         -3.02261       -1.00942        2.87476
H         -1.34994       -2.17875       -0.84735
C         -3.14941        1.15592        0.08589
C         -3.05448        2.51723       -0.09086
C         -4.15060        3.22832       -0.54625
C         -5.33165        2.56878       -0.82449
C         -5.41951        1.20145       -0.65139
C         -4.32192        0.49321       -0.19620
H         -4.37155       -0.57563       -0.06413
H         -2.12125        3.01670        0.11680
Pd        -0.00461        0.24036       -0.92778
Cl         1.68665        0.40194       -2.39789
Cl        -1.55530        0.76301       -2.46539
H         -1.68898        1.62710        2.61802
H         -0.28242        1.87800        1.60414
H         -0.74171       -0.32045        3.66757
H          0.56525        0.82862        3.59638
H          0.15118       -1.65304        1.87180
H          1.53344       -1.25640        2.86338
H          4.29066        2.78389        3.56998
H          3.82459        4.00056       -0.48733
H          5.72558       -2.07853       -1.05978
H          2.29651       -4.60729       -1.15311
H         -1.85885       -4.54396       -0.34551
H         -3.55808       -3.37124        3.38262
H         -4.07970        4.29411       -0.68874
H         -6.33914        0.68583       -0.87415
H          4.73355        4.39509        1.76553
H          4.68332       -4.23563       -1.61845
H         -2.96659       -5.13209        1.77067
H         -6.18497        3.12169       -1.18204
