105
-153.06464446
Cl        -0.00909        1.85445        3.10679
Pd        -0.45942        1.28174        0.97450
P         -1.09842        0.52404       -1.15740
N         -0.64873       -0.96306       -1.98708
C          0.22410       -1.98819       -1.62585
C          0.31922       -2.48484       -0.30192
C          1.24762       -3.50771       -0.01591
C          1.33148       -4.04309        1.39423
C          2.12218       -5.35285        1.53771
C          3.40756       -5.31047        0.70671
C          3.08151       -5.10439       -0.77969
C          2.05291       -4.03072       -1.03155
C          1.89921       -3.56471       -2.33083
C          1.00052       -2.57360       -2.62491
H          0.90773       -2.20876       -3.63302
H          2.51008       -3.98534       -3.11168
H          3.99379       -4.85831       -1.33828
H          4.04038       -4.48596        1.05869
H          2.34798       -5.55988        2.59334
H          1.78663       -3.27233        2.02681
C         -0.67040       -2.09859        0.73408
C         -0.21937       -1.52628        1.95605
C         -1.12874       -1.39888        3.00995
C         -2.42974       -1.80541        2.87234
C         -2.89115       -2.36381        1.68664
C         -4.32520       -2.83458        1.64076
C         -4.65360       -3.75264        0.45334
C         -3.99654       -3.24362       -0.83179
C         -2.47082       -3.16372       -0.67138
C         -2.01585       -2.49934        0.60586
H         -2.03914       -4.17073       -0.71201
H         -4.38965       -2.24796       -1.07162
H         -5.74092       -3.84715        0.32201
H         -4.98089       -1.95737        1.62171
H         -3.11462       -1.69528        3.69611
H         -0.79630       -0.95167        3.93028
N          1.08596       -1.03857        2.11990
P          1.62684        0.19685        0.98414
C          2.62899       -0.34783       -0.38560
C          2.43844        0.24184       -1.61030
C          3.24647       -0.11556       -2.67405
C          4.25110       -1.06036       -2.50943
C          4.44688       -1.61850       -1.25254
C          3.63639       -1.26070       -0.19010
H          3.78106       -1.68838        0.78931
H          5.23489       -2.33836       -1.11187
C          5.12457       -1.44385       -3.65227
H          3.09743        0.33506       -3.64026
H          1.65152        0.96758       -1.72814
C          2.54706        1.51422        1.78522
C          3.28657        1.25533        2.91394
C          3.99534        2.27801        3.51814
C          3.96483        3.56416        2.99559
C          3.22767        3.79941        1.84279
C          2.52057        2.77577        1.23868
H          1.94487        2.95610        0.34395
H          3.20917        4.79000        1.42149
C          4.74268        4.66130        3.63486
H          4.57768        2.08237        4.40228
H          3.31387        0.25527        3.31539
H          1.26669       -0.62723        3.02652
H         -0.91079       -0.86998       -2.96046
C         -0.61673        1.91780       -2.19304
C         -0.89196        3.20197       -1.78826
C         -0.50607        4.27498       -2.56818
C          0.16619        4.07105       -3.76493
C          0.42317        2.76856       -4.16974
C          0.03278        1.69844       -3.38587
H          0.25015        0.69090       -3.69753
H          0.93305        2.59752       -5.10248
C          0.56542        5.22489       -4.61747
H         -0.72550        5.28009       -2.25072
H         -1.41239        3.35941       -0.85889
C         -2.89403        0.51342       -1.12017
C         -3.55617        0.72569       -2.30632
C         -4.93954        0.71560       -2.33567
C         -5.66821        0.49276       -1.17547
C         -4.98164        0.29087        0.01324
C         -3.59934        0.28508        0.03625
H         -3.06470        0.11727        0.95727
H         -5.53862        0.14956        0.92341
C         -7.15685        0.51007       -1.19400
H         -5.46131        0.88735       -3.26156
H         -2.98735        0.90255       -3.20598
Cl        -2.27328        2.62062        1.00389
H          2.71759       -6.04412       -1.21200
H          1.50056       -6.19172        1.20032
H          4.00094       -6.22360        0.85657
H          0.31338       -4.17662        1.78125
H         -4.26738       -3.87928       -1.68670
H         -2.04428       -2.62688       -1.52500
H         -4.55538       -3.34541        2.58463
H         -4.29385       -4.76730        0.66604
H          5.99760       -0.79230       -3.70871
H          5.47649       -2.47149       -3.55053
H          4.58751       -1.37115       -4.59909
H          4.83039        4.50611        4.71108
H          5.74965        4.71577        3.21896
H          4.26092        5.62753        3.47888
H          1.45542        4.99215       -5.20384
H         -0.23458        5.48969       -5.31014
H          0.78989        6.10326       -4.01068
H         -7.54277        0.25025       -2.18071
H         -7.56617       -0.20586       -0.47973
H         -7.53547        1.49947       -0.93404
