171
-217.84054454
P         -1.68121        0.67541        0.21408
P          1.53558       -0.22132       -0.19072
C         -0.83422        1.85686       -0.85812
C          0.73073       -0.80076       -1.69451
C         -0.12942        1.50894       -2.00471
C          0.56029        2.51629       -2.70573
C          0.50639        3.82189       -2.24764
C         -0.19551        4.14752       -1.10723
C         -0.85929        3.15656       -0.41022
C          0.88931       -2.10241       -2.10124
C          0.27176       -2.55037       -3.25216
C         -0.50934       -1.68525       -3.99006
C         -0.68922       -0.36936       -3.59474
C         -0.03636        0.09014       -2.43479
Cl         1.96652        0.91638        2.85699
Cl        -1.16474        0.29777        3.42365
C         -1.54609        0.54039       -4.40395
C          1.36677        2.21137       -3.91945
H         -0.22030        5.16609       -0.75592
H         -1.39598        3.39171        0.49723
H          1.50406       -2.76857       -1.52071
H          0.39703       -3.57264       -3.56971
H          1.03567        4.58649       -2.79102
H         -0.98368       -2.02931       -4.89322
C         -2.88779       -3.40521       -1.35055
C         -3.47404       -2.26571       -1.88629
C         -3.04699       -1.03274       -1.40995
C         -2.08607       -0.95417       -0.43210
C         -1.53591       -2.09432        0.10569
C         -1.92514       -3.34786       -0.34911
H         -3.21099       -4.36197       -1.71499
H         -3.47540       -0.12079       -1.78661
H         -0.81307       -2.01001        0.89779
C         -5.67820        2.51502        1.30648
C         -4.93904        1.90498        2.31337
C         -3.70844        1.36287        1.97385
C         -3.23915        1.43534        0.68810
C         -3.97920        2.04668       -0.29439
C         -5.22069        2.59896       -0.00308
H         -6.63749        2.93720        1.53989
H         -3.09978        0.88671        2.72056
H         -3.57526        2.09155       -1.29158
C          3.87837       -3.69299        1.61028
C          2.88181       -3.11016        2.38218
C          2.16243       -2.06112        1.82900
C          2.43988       -1.59742        0.56481
C          3.44615       -2.17510       -0.17125
C          4.17922       -3.24265        0.33190
H          4.44180       -4.51533        2.00927
H          1.38974       -1.59573        2.41231
H          3.65425       -1.79032       -1.15320
C          4.51204        2.99317       -1.34261
C          3.68707        3.21193       -0.24675
C          2.79649        2.20700        0.10522
C          2.72257        1.05023       -0.62816
C          3.52626        0.86254       -1.72633
C          4.44819        1.83233       -2.10325
H          5.23481        3.74461       -1.60114
H          2.16071        2.31385        0.96497
H          3.41292       -0.03887       -2.30252
Pd         0.16109        0.40847        1.62188
C         -5.73467       -3.25089       -2.34519
C         -4.59455       -2.39471       -2.92866
C         -4.04011       -3.06622       -4.19675
C         -5.17566       -1.01887       -3.31151
H         -5.39622       -4.25988       -2.11320
H         -6.11744       -2.80620       -1.42671
H         -6.56141       -3.33220       -3.05069
H         -3.63215       -4.05204       -3.97631
H         -4.82085       -3.18668       -4.94757
H         -3.24488       -2.46451       -4.63367
H         -5.97844       -1.12679       -4.04072
H         -5.58803       -0.51247       -2.43894
H         -4.41426       -0.37808       -3.75403
C         -1.78473       -4.61317        1.80042
C         -1.36053       -4.61013        0.32063
C          0.17482       -4.61628        0.21848
C         -1.88955       -5.89660       -0.34240
H         -1.40374       -5.49452        2.31582
H         -1.41168       -3.73080        2.31828
H         -2.87096       -4.61392        1.88849
H          0.59766       -5.48490        0.72282
H          0.48965       -4.65088       -0.82356
H          0.60473       -3.72645        0.67326
H         -1.62207       -5.93099       -1.39845
H         -1.46452       -6.77946        0.13506
H         -2.97367       -5.96700       -0.25626
C         -5.53933        0.32232        4.16166
C         -5.42756        1.80634        3.76544
C         -6.80638        2.46828        3.95054
C         -4.41736        2.51303        4.68879
H         -5.90202        0.21748        5.18398
H         -6.23097       -0.20118        3.50190
H         -4.57353       -0.17769        4.09812
H         -7.13595        2.39158        4.98664
H         -6.77093        3.52679        3.69347
H         -7.56006        1.98553        3.32869
H         -3.43556        2.04417        4.63427
H         -4.30414        3.55936        4.40606
H         -4.74606        2.47688        5.72718
C         -5.38786        3.26536       -2.45404
C         -6.08548        3.27082       -1.07900
C         -6.35598        4.73206       -0.67634
C         -7.41791        2.50982       -1.20640
H         -6.01130        3.74895       -3.20594
H         -4.44060        3.80308       -2.41566
H         -5.19434        2.24771       -2.79263
H         -5.41995        5.27783       -0.55884
H         -6.95122        5.24161       -1.43390
H         -6.89773        4.78992        0.26695
H         -8.04740        2.95167       -1.97863
H         -7.24171        1.46712       -1.47010
H         -7.97551        2.52828       -0.27073
C          2.87562       -2.36163        4.76995
C          2.58466       -3.54297        3.82522
C          3.45358       -4.74130        4.25186
C          1.10462       -3.94683        3.94867
H          3.91544       -2.04735        4.68390
H          2.24832       -1.50284        4.53328
H          2.68895       -2.63571        5.80798
H          3.22253       -5.04180        5.27377
H          3.27752       -5.60188        3.60662
H          4.51358       -4.49091        4.21468
H          0.87383       -4.27780        4.96100
H          0.44582       -3.11130        3.71618
H          0.87195       -4.76359        3.26641
C          4.88523       -5.39539       -0.73420
C          5.28331       -3.92956       -0.48410
C          6.60861       -3.87423        0.29823
C          5.49631       -3.23994       -1.84644
H          4.76792       -5.93822        0.20309
H          3.93910       -5.45015       -1.27266
H          5.64174       -5.91005       -1.32633
H          6.88682       -2.84192        0.50979
H          6.53247       -4.40189        1.24808
H          7.41711       -4.33165       -0.27182
H          4.59128       -3.27755       -2.45260
H          5.78324       -2.19677       -1.71530
H          6.28941       -3.73178       -2.40945
C          3.53915        5.71056       -0.40534
C          3.78610        4.52346        0.54388
C          5.18964        4.63523        1.16526
C          2.74139        4.58255        1.67641
H          2.55642        5.63316       -0.86943
H          3.58383        6.65676        0.13360
H          4.28277        5.74497       -1.20055
H          5.38528        3.79060        1.82564
H          5.96225        4.64538        0.39728
H          5.28639        5.55041        1.74908
H          2.80846        5.52688        2.21620
H          1.72939        4.49911        1.28065
H          2.89714        3.78019        2.39720
C          5.00678        0.41376       -4.14073
C          5.42837        1.61097       -3.26510
C          6.82428        1.33048       -2.68192
C          5.48750        2.86288       -4.16254
H          5.03616       -0.51856       -3.57796
H          3.99834        0.54971       -4.53046
H          5.67913        0.30097       -4.99111
H          7.17153        2.16977       -2.07986
H          6.80456        0.44739       -2.04340
H          7.55274        1.15940       -3.47430
H          6.15016        2.69882       -5.01220
H          4.50084        3.10999       -4.55203
H          5.86194        3.72932       -3.61955
H         -0.96298        1.03877       -5.17918
H          2.35387        2.66849       -3.84709
H         -2.00502        1.30830       -3.77907
H         -2.34958       -0.00948       -4.89564
H          0.88349        2.59933       -4.81723
H          1.51042        1.13807       -4.04822
