111
-148.55032754
P         -2.14194        2.19813        1.44934
P          0.13781        0.20659        0.50700
C         -1.07118        1.41283        2.67912
C         -0.10996        0.51633        2.26755
C         -2.25834        4.02118        1.73357
C         -1.86363        4.77715        0.48374
C         -1.23229        1.68365        4.02285
H         -1.97103        2.40337        4.33574
C         -0.44425        1.03256        4.95607
H         -0.57076        1.24140        6.00584
C          0.49618        0.10831        4.54370
H          1.10204       -0.40770        5.27025
C          0.66190       -0.15234        3.19528
H          1.38392       -0.88019        2.85903
Pd        -1.52423        1.38174       -0.62461
Cl        -3.29944        2.47048       -1.45968
Cl        -0.87205        0.40296       -2.53670
C         -3.73012        4.22207        2.15156
C         -3.92787        1.72450        1.61116
H         -0.84568        4.52867        0.17337
H         -2.52981        4.52516       -0.34327
H         -1.91808        5.85809        0.63406
H         -4.07997        5.20355        1.79984
H         -3.80671        4.25695        3.24822
H         -4.17790        1.14554        0.71159
C         -4.64587        3.08927        1.60839
C         -4.18531        0.90055        2.85544
H         -1.57361        4.25814        2.55931
H         -5.57100        3.02015        2.19906
H         -4.96429        3.33969        0.58572
H         -3.98354        1.48538        3.75391
H         -5.22510        0.56940        2.90857
H         -3.54567        0.01578        2.88848
C         -1.19684       -4.04135       -0.42526
C         -2.10427       -3.10868        0.13979
C         -1.63658       -1.83991        0.44076
C         -0.35576       -1.46797        0.12500
C          0.48951       -2.32727       -0.52571
C          0.08709       -3.61199       -0.84921
O         -1.55650       -5.41107       -0.53304
C         -3.57217       -3.45138        0.43753
H         -2.27049       -1.11807        0.92725
H          1.47414       -1.97759       -0.78078
C          1.04173       -4.52119       -1.63868
C          4.41033        0.98413       -0.90926
C          4.10770        1.08122        0.47260
C          2.80580        0.84079        0.87856
C          1.81313        0.57776       -0.03040
C          2.08503        0.59608       -1.37340
C          3.36150        0.83464       -1.85106
O          5.76217        1.00358       -1.34479
C          5.17556        1.40461        1.52965
H          2.55192        0.85315        1.92234
H          1.26976        0.42218       -2.05198
C          3.59080        0.91019       -3.36909
C         -4.10701       -4.51398       -0.53965
C         -3.69219       -3.95306        1.88430
C         -4.46409       -2.20003        0.26905
C          1.96150       -3.68052       -2.55304
C          1.91692       -5.31640       -0.65871
C          0.25896       -5.48284       -2.55121
C         -1.23764       -6.18330        0.61753
H         -3.98070       -4.18438       -1.57036
H         -3.58206       -5.45895       -0.42552
H         -5.16675       -4.70369       -0.37109
H         -3.08857       -4.84386        2.04304
H         -3.35024       -3.19203        2.58547
H         -4.72560       -4.19751        2.12869
H         -5.51893       -2.46222        0.34661
H         -4.26337       -1.45634        1.03756
H         -4.30380       -1.73799       -0.70480
H          1.37360       -3.00829       -3.17755
H          2.66820       -3.08570       -1.97612
H          2.54656       -4.32295       -3.21073
H          1.31083       -5.94525       -0.01091
H          2.61613       -5.95910       -1.19308
H          2.49352       -4.64379       -0.02408
H          0.93453       -6.08151       -3.16165
H         -0.35471       -6.16786       -1.97121
H         -0.39943       -4.92731       -3.21824
H         -0.72301       -5.56895        1.35740
H         -2.15108       -6.58703        1.05369
H         -0.59868       -7.01818        0.32991
C          6.36183       -0.28306       -1.43058
C          6.24862        2.35086        0.96092
C          4.54389        2.11936        2.74608
C          5.82406        0.09847        2.01264
C          4.74609        1.86958       -3.70812
C          3.89251       -0.49496       -3.91079
C          2.33158        1.45244       -4.08369
H          5.79155        3.26126        0.57463
H          6.96967        2.63210        1.72804
H          6.79919        1.88336        0.14830
H          5.31473        2.46449        3.43480
H          3.96603        2.98708        2.42897
H          3.88803        1.45624        3.30836
H          6.57955        0.29538        2.77286
H          5.07605       -0.56647        2.44391
H          6.30308       -0.43054        1.19234
H          4.86556        1.97386       -4.78622
H          4.55865        2.85816       -3.29034
H          5.69049        1.51162       -3.30599
H          3.05672       -1.16689       -3.72017
H          4.06539       -0.47005       -4.98637
H          4.77429       -0.92044       -3.43780
H          1.50260        0.74838       -4.03146
H          2.53239        1.63093       -5.13972
H          2.00926        2.39411       -3.64030
H          5.65445       -1.05443       -1.12329
H          6.68191       -0.47044       -2.45536
H          7.24129       -0.31931       -0.78786
