111
-148.55644864
P         -2.50113        2.12890        1.11034
P          0.08536        0.35917        0.54227
C         -1.42188        1.62735        2.48018
C         -0.27991        0.89954        2.22192
C         -3.16875        3.83766        1.35347
C         -2.47755        4.83831        0.45329
C         -1.74366        1.96166        3.78009
H         -2.64751        2.51337        3.98035
C         -0.91356        1.57280        4.81751
H         -1.16470        1.83345        5.83271
C          0.23393        0.84947        4.55429
H          0.87864        0.54477        5.36218
C          0.54980        0.50811        3.25141
H          1.43259       -0.07079        3.02832
Pd        -1.33671        1.57522       -0.80275
Cl        -2.91056        2.67471       -1.96555
Cl        -0.11005        1.02042       -2.60342
C         -4.67421        3.65629        1.08463
C         -4.07867        1.16697        1.02128
H         -2.87170        5.84657        0.60029
H         -1.40136        4.86324        0.64061
H         -2.62044        4.57976       -0.59661
H         -4.87089        3.87135        0.02522
H         -5.25797        4.39811        1.65067
H         -4.19878        0.87726       -0.03130
C         -5.14251        2.20938        1.41343
C         -4.02651       -0.05487        1.91250
H         -2.99894        4.08970        2.40797
H         -5.34075        2.12450        2.49075
H         -6.09961        1.98439        0.91875
H         -4.96319       -0.61608        1.87748
H         -3.21787       -0.72559        1.61361
H         -3.84840        0.22984        2.95115
C         -1.07789       -3.99255       -0.11421
C         -1.15556       -3.44470        1.19462
C         -0.79436       -2.11953        1.37289
C         -0.45370       -1.33130        0.30524
C         -0.50707       -1.82073       -0.97250
C         -0.85336       -3.13615       -1.22454
O         -1.13896       -5.39716       -0.30324
C         -1.61783       -4.23622        2.42962
H         -0.75902       -1.69199        2.35980
H         -0.26447       -1.15169       -1.78045
C         -0.97264       -3.57553       -2.69297
C          4.42160        0.67477       -0.79365
C          3.91055       -0.56329       -0.32139
C          2.58658       -0.61159        0.08058
C          1.80837        0.51640        0.09784
C          2.33278        1.73765       -0.23349
C          3.65022        1.85899       -0.64580
O          5.65871        0.71274       -1.48671
C          4.73016       -1.86150       -0.23209
H          2.13776       -1.54882        0.36432
H          1.68999        2.60085       -0.19064
C          4.18704        3.27248       -0.92678
C         -2.32193       -5.55121        2.05246
C         -0.40472       -4.54035        3.32416
C         -2.63652       -3.39392        3.22913
C          0.43269       -3.68126       -3.30873
C         -1.70531       -4.91974       -2.84348
C         -1.78954       -2.52438       -3.47776
C          0.13436       -6.01658       -0.22608
H         -2.72660       -6.04727        2.93434
H         -3.14262       -5.36291        1.36114
H         -1.63409       -6.24332        1.57258
H         -0.70744       -5.08276        4.21947
H          0.33035       -5.14616        2.79774
H          0.08720       -3.62060        3.63937
H         -3.02507       -3.95724        4.07715
H         -2.18992       -2.48253        3.62319
H         -3.48004       -3.11275        2.59948
H          1.03493       -4.42515       -2.79074
H          0.37714       -3.96640       -4.35892
H          0.95714       -2.72808       -3.24723
H         -1.86274       -5.16607       -3.89328
H         -1.13583       -5.73143       -2.39707
H         -2.67725       -4.88440       -2.35260
H         -1.95920       -2.85082       -4.50338
H         -2.76082       -2.36495       -3.01047
H         -1.27762       -1.56476       -3.52481
H          0.57888       -5.83768        0.75155
H          0.02194       -7.08999       -0.37987
H          0.79514       -5.61070       -0.99028
C          5.51169        0.50134       -2.88124
C          4.26230       -2.83574       -1.32684
C          6.24170       -1.61280       -0.37333
C          4.50713       -2.51322        1.15084
C          3.77896        4.21597        0.22629
C          5.72269        3.30993       -1.01454
C          3.58291        3.79458       -2.24117
H          4.81453       -3.77373       -1.27557
H          3.20248       -3.06461       -1.21802
H          4.40948       -2.41325       -2.31894
H          6.80775       -2.52929       -0.20839
H          6.49070       -1.24726       -1.36659
H          6.57795       -0.87030        0.34952
H          4.75775       -1.81532        1.94925
H          3.47370       -2.82670        1.28957
H          5.13262       -3.39773        1.26877
H          4.21151        5.20669        0.08884
H          2.69902        4.33992        0.28576
H          4.12725        3.82691        1.18265
H          6.08559        4.33240       -1.11666
H          6.16937        2.87791       -0.11973
H          6.08275        2.74661       -1.87208
H          2.49465        3.81050       -2.19038
H          3.86485        3.16405       -3.08199
H          3.92448        4.80763       -2.45185
H          4.86996        1.26905       -3.31004
H          6.49175        0.54328       -3.35691
H          5.06240       -0.47288       -3.06670
