105
-153.05827156
Cl         0.14523        3.49663        1.88248
Pd        -0.14805        1.98391        0.25225
P         -0.68214        0.29601       -1.34418
N          0.14301       -1.13974       -1.98439
C          0.21443       -2.46878       -1.56980
C         -0.11909       -2.94736       -0.27053
C          0.19672       -4.28139        0.07267
C          0.07738       -4.73018        1.51157
C         -0.08659       -6.24886        1.66237
C          1.01762       -6.98040        0.89353
C          0.98434       -6.61648       -0.60056
C          0.69805       -5.16107       -0.88995
C          0.93440       -4.69198       -2.17452
C          0.71985       -3.37819       -2.49905
H          0.95481       -3.02699       -3.48905
H          1.31695       -5.37315       -2.91591
H          1.93623       -6.88740       -1.07493
H          1.99324       -6.70582        1.31416
H         -0.09165       -6.54278        2.72157
H          0.97861       -4.40417        2.04468
C         -0.71822       -2.08229        0.78242
C          0.09285       -1.08593        1.38247
C         -0.37775       -0.39765        2.50026
C         -1.62839       -0.65680        2.99634
C         -2.45902       -1.60502        2.40632
C         -3.81725       -1.83582        3.02650
C         -4.74166       -2.77913        2.23679
C         -3.95399       -3.92393        1.59223
C         -2.88319       -3.36474        0.64579
C         -2.00446       -2.32622        1.29793
H         -2.27047       -4.17711        0.23851
H         -4.62514       -4.61587        1.06392
H         -5.25552       -2.21164        1.45185
H         -4.30460       -0.86252        3.16694
H         -1.98711       -0.11292        3.85373
H          0.23993        0.35959        2.94672
N          1.25869       -0.72788        0.71512
P          1.81440        0.88863        0.92963
C          3.00766        1.29742       -0.34127
C          3.94845        2.27145       -0.10645
C          4.84672        2.61037       -1.10228
C          4.80837        1.97379       -2.33585
C          3.84176        1.00219       -2.55620
C          2.94517        0.66443       -1.56054
H          2.16502       -0.05285       -1.75452
H          3.78737        0.52088       -3.51783
C          5.75208        2.36190       -3.42031
H          5.58171        3.37749       -0.92785
H          3.97092        2.76656        0.85155
C          2.59922        0.94538        2.54278
C          3.42743       -0.09952        2.87700
C          4.06443       -0.10680        4.10574
C          3.86950        0.93029        5.00805
C          3.03433        1.97943        4.64823
C          2.40000        1.98275        3.42117
H          1.73719        2.78473        3.14602
H          2.88286        2.79344        5.33643
C          4.57399        0.93464        6.32011
H          4.71779       -0.92041        4.37075
H          3.56538       -0.90736        2.17490
H          1.11627       -0.85079       -0.28513
H          0.27473       -0.96854       -2.97429
C         -0.63908        1.44789       -2.73531
C         -1.72102        1.56455       -3.57558
C         -1.68406        2.45473       -4.63285
C         -0.55851        3.23375       -4.86168
C          0.52064        3.11142       -3.99809
C          0.47873        2.21999       -2.94268
H          1.31499        2.13690       -2.27098
H          1.39317        3.72281       -4.15350
C         -0.52816        4.21587       -5.98048
H         -2.53507        2.55457       -5.28478
H         -2.60072        0.96964       -3.39685
C         -2.41098       -0.13040       -1.10951
C         -2.95071       -1.05143       -1.97625
C         -4.29540       -1.36895       -1.89920
C         -5.10460       -0.77715       -0.93978
C         -4.54144        0.14842       -0.07132
C         -3.20056        0.47266       -0.15904
H         -2.77341        1.20578        0.50436
H         -5.16185        0.62201        0.67013
C         -6.55322       -1.11454       -0.86739
H         -4.72319       -2.08363       -2.58137
H         -2.31454       -1.51832       -2.71166
Cl        -1.79102        3.24659       -0.62764
H          0.22427       -7.22263       -1.10801
H         -1.06531       -6.54886        1.26723
H          0.93340       -8.06741        1.03329
H         -0.74882       -4.21089        2.00862
H         -3.47058       -4.52012        2.37626
H         -3.36764       -2.91200       -0.22443
H         -3.66746       -2.23388        4.03731
H         -5.54010       -3.17278        2.88142
H          5.32748        3.15525       -4.03702
H          6.69650        2.72273       -3.01055
H          5.97569        1.51407       -4.06936
H          5.56684        1.37641        6.22510
H          4.01996        1.50928        7.06368
H          4.69170       -0.07879        6.70639
H          0.48798        4.36041       -6.35015
H         -1.14004        3.87802       -6.81804
H         -0.90884        5.18471       -5.65449
H         -6.70517       -2.19399       -0.91251
H         -6.99977       -0.75479        0.06060
H         -7.09759       -0.66271       -1.69768
