111
-148.54629792
P         -2.55684        2.14287        0.90330
P          0.06156        0.38406        0.48886
C         -1.48455        1.74761        2.31810
C         -0.32798        1.02527        2.12284
C         -3.46191        3.72812        1.24756
C         -3.37229        4.70742        0.09928
C         -1.82803        2.15173        3.59340
H         -2.74576        2.69256        3.75393
C         -1.00427        1.84427        4.66260
H         -1.27396        2.16133        5.65680
C          0.16025        1.12984        4.45861
H          0.80068        0.88865        5.29099
C          0.49707        0.71429        3.18313
H          1.39275        0.13918        3.00590
Pd        -1.29499        1.56780       -0.97048
Cl        -2.56807        2.94593       -2.18097
Cl         0.08099        0.81057       -2.58355
C         -4.89863        3.24739        1.53777
C         -3.99005        0.97629        0.76928
H         -3.85780        4.30029       -0.78861
H         -3.86502        5.65304        0.33703
H         -2.33333        4.92138       -0.16118
H         -5.61421        4.02857        1.24222
H         -5.03862        3.11306        2.62038
H         -3.90516        0.47859       -0.20668
C         -5.21504        1.91209        0.80915
C         -3.95829       -0.04416        1.88603
H         -3.00042        4.16431        2.14343
H         -6.05622        1.39570        1.29405
H         -5.55175        2.12918       -0.21522
H         -3.03432       -0.62554        1.86261
H         -4.01243        0.44762        2.85912
H         -4.79738       -0.74071        1.81853
C         -1.14045       -3.99342        0.10163
C         -1.13189       -3.38638        1.38403
C         -0.76026       -2.05555        1.47780
C         -0.48941       -1.31716        0.35572
C         -0.60788       -1.87130       -0.89076
C         -0.96539       -3.19687       -1.05822
O         -1.27958       -5.40179       -0.01799
C         -1.47560       -4.15908        2.66706
H         -0.66013       -1.57968        2.43700
H         -0.38978       -1.24725       -1.73915
C         -1.10828       -3.75294       -2.48293
C          4.44652        0.70446       -0.69199
C          3.82550       -0.56770       -0.60967
C          2.49098       -0.62063       -0.24716
C          1.80046        0.51370        0.09016
C          2.42090        1.73466        0.10731
C          3.75649        1.85954       -0.24101
O          5.74325        0.82450       -1.25892
C          4.55507       -1.87675       -0.94978
H          1.96253       -1.55761       -0.24283
H          1.83805        2.59647        0.38389
C          4.42044        3.24342       -0.16570
C         -0.19385       -4.77733        3.24549
C         -2.08984       -3.21563        3.72632
C         -2.51760       -5.25819        2.39055
C          0.25852       -4.26165       -2.96630
C         -2.14862       -4.88606       -2.53679
C         -1.59417       -2.64923       -3.45069
C         -0.04508       -6.10784        0.00611
H         -0.40418       -5.32402        4.16437
H          0.26333       -5.46803        2.54099
H          0.53853       -4.00306        3.47303
H         -2.94412       -2.67748        3.31717
H         -2.43557       -3.78023        4.59194
H         -1.36616       -2.48727        4.08895
H         -3.41225       -4.83299        1.93685
H         -2.12743       -6.01381        1.71331
H         -2.81052       -5.76134        3.31170
H          0.19267       -4.65536       -3.98020
H          0.99129       -3.45511       -2.96434
H          0.63597       -5.05222       -2.32206
H         -3.10945       -4.54273       -2.15479
H         -2.29485       -5.23561       -3.55850
H         -1.83822       -5.73916       -1.93889
H         -0.83793       -1.88006       -3.59950
H         -1.82147       -3.06683       -4.43117
H         -2.49772       -2.17206       -3.07223
H          0.07861       -6.66183       -0.92424
H          0.78800       -5.41461        0.12961
H         -0.04861       -6.82205        0.82936
C          5.74305        1.04046       -2.66462
C          3.95472       -3.06043       -0.15576
C          4.39894       -2.16939       -2.44985
C          6.04552       -1.79330       -0.57475
C          5.91940        3.12502        0.16494
C          4.22770        3.97108       -1.50500
C          3.78054        4.09534        0.95420
H          2.94327       -3.29600       -0.48410
H          4.55210       -3.96133       -0.29408
H          3.92693       -2.83809        0.91064
H          4.83300       -1.37686       -3.05420
H          4.88916       -3.10473       -2.71867
H          3.34588       -2.25017       -2.71810
H          6.55019       -2.74100       -0.76087
H          6.55812       -1.02863       -1.15295
H          6.16230       -1.54811        0.48035
H          6.46021        2.60476       -0.62143
H          6.37384        4.10860        0.28133
H          6.06505        2.57206        1.09228
H          3.16793        4.08540       -1.73174
H          4.67694        4.96349       -1.47894
H          4.68170        3.41798       -2.32352
H          4.33140        5.02498        1.09547
H          3.78473        3.55657        1.90139
H          2.75280        4.36663        0.71780
H          6.23619        1.98579       -2.89018
H          6.29813        0.24232       -3.15724
H          4.72107        1.06280       -3.04532
