58
-89.86559913
P          1.67964        0.16268        0.85768
C          3.00788        1.36019        0.70846
C          2.72158        2.69971        0.83870
C          3.73574        3.63312        0.71721
C          5.02832        3.21615        0.46676
C          5.30982        1.87033        0.33685
C          4.29386        0.93952        0.45806
H          4.49642       -0.11415        0.35348
H          1.70524        3.00993        1.02493
C          2.21485       -1.46116        0.30223
C          2.34781       -2.52016        1.17206
C          2.72301       -3.76083        0.68909
C          2.96384       -3.93282       -0.65992
C          2.83455       -2.86717       -1.52808
C          2.45913       -1.62892       -1.04181
H          2.34376       -0.78448       -1.70273
H          2.15335       -2.37984        2.22237
C          1.17769        0.17163        2.62960
C         -0.13600       -0.52599        2.94754
C         -1.36750        0.24334        2.48628
P         -1.76776       -0.04744        0.71906
C         -1.98299       -1.81905        0.50685
C         -0.93928       -2.57626        0.02858
C         -1.07908       -3.94547       -0.09929
C         -2.26637       -4.55053        0.26120
C         -3.30742       -3.79044        0.75720
C         -3.16152       -2.42058        0.88637
H         -3.95964       -1.81788        1.28987
H         -0.00778       -2.09925       -0.22080
C         -3.25101        0.86753        0.27199
C         -3.40658        2.16149        0.71619
C         -4.52862        2.88474        0.35234
C         -5.48400        2.31024       -0.46222
C         -5.31766        1.01763       -0.91777
C         -4.19541        0.29725       -0.55099
H         -4.04147       -0.70295       -0.92226
H         -2.64568        2.60753        1.33639
Pd        -0.02257        0.64525       -0.64576
Cl         1.61939        1.45534       -1.95802
Cl        -1.61293        0.94843       -2.20583
H         -2.25954       -0.06230        3.03891
H         -1.24306        1.31503        2.64813
H         -0.14273       -1.53076        2.50479
H         -0.19868       -0.68988        4.03484
H          2.01098       -0.27426        3.17785
H          1.13286        1.21778        2.93849
H          3.51526        4.68351        0.81359
H          6.31776        1.54517        0.13796
H          2.82378       -4.59354        1.36567
H          3.02184       -2.99903       -2.58102
H         -0.25891       -4.53669       -0.47196
H         -4.23128       -4.26326        1.04741
H         -4.65292        3.89717        0.69998
H         -6.05620        0.57250       -1.56405
H          5.81843        3.94277        0.36940
H          3.25406       -4.90046       -1.03564
H         -2.37835       -5.61792        0.16196
H         -6.35664        2.87410       -0.74909
