58
-89.86559157
P          1.68697        0.34936        0.83579
C          2.94899        1.60759        0.57633
C          2.70651        2.69461       -0.23262
C          3.67924        3.66372       -0.39767
C          4.88856        3.54376        0.25736
C          5.12435        2.46078        1.08049
C          4.14872        1.49334        1.24336
H          4.31586        0.65158        1.89691
H          1.75954        2.77948       -0.74025
C          2.26454       -1.29639        0.39017
C          1.35578       -2.32934        0.40051
C          1.75224       -3.60655        0.05069
C          3.06311       -3.84164       -0.31238
C          3.97158       -2.80163       -0.33418
C          3.56879       -1.52543        0.01511
H          4.26475       -0.70451       -0.02093
H          0.32683       -2.12600        0.64054
C          1.27665        0.41081        2.62681
C          0.05515       -0.38692        3.04707
C         -1.26005        0.22347        2.58753
P         -1.68292       -0.07806        0.82292
C         -1.98774       -1.82215        0.49992
C         -2.08707       -2.74052        1.52106
C         -2.28046       -4.07781        1.22543
C         -2.37777       -4.48736       -0.08978
C         -2.28846       -3.56274       -1.11084
C         -2.09448       -2.22766       -0.81089
H         -2.02159       -1.48980       -1.59344
H         -2.01508       -2.41463        2.54549
C         -3.15289        0.89453        0.48748
C         -3.05178        2.26555        0.43026
C         -4.17641        3.02558        0.16170
C         -5.39253        2.40515       -0.04705
C         -5.48777        1.02858        0.01098
C         -4.36174        0.27125        0.27889
H         -4.41791       -0.80453        0.32053
H         -2.09295        2.73451        0.58723
Pd        -0.03622        0.47976       -0.71782
Cl         1.53050        0.79305       -2.29612
Cl        -1.72167        0.71716       -2.19345
H         -2.10458       -0.16542        3.16176
H         -1.25457        1.30431        2.74026
H          0.13940       -1.41775        2.68268
H          0.04685       -0.47364        4.14488
H          2.17267        0.06198        3.14604
H          1.15352        1.46394        2.88705
H          3.49305        4.50955       -1.03894
H          6.06544        2.36940        1.59753
H          1.03533       -4.41105        0.05197
H          4.99245       -2.98228       -0.62833
H         -2.35421       -4.79973        2.02216
H         -2.36667       -3.87899       -2.13797
H         -4.10130        4.09938        0.11139
H         -6.43588        0.54427       -0.15573
H          5.64810        4.29752        0.12809
H          3.37558       -4.83579       -0.58758
H         -2.52670       -5.52986       -0.31944
H         -6.26848        2.99636       -0.25891
