72
-98.09710696
Fe         0.00161        2.76927        0.03222
P          1.86975       -0.06853       -0.03088
P         -1.85461       -0.04970        0.05648
C          1.41627        1.54034        0.72753
C          0.39542        1.74111        1.74222
C          0.31353        3.16542        2.01342
C          1.32054        3.83966        1.21429
C          2.01015        2.83385        0.42513
C         -1.39763        1.57687       -0.66774
C         -1.98654        2.86688       -0.33890
C         -1.30375        3.87933       -1.12668
C         -0.33453        3.21484       -1.97830
C         -0.40221        1.79136       -1.70329
C          3.21179       -0.86582        0.99106
C          4.49766       -0.65944        0.16050
C          2.86462        0.24486       -1.57171
C          4.29130        0.34857       -0.99917
C         -3.22857       -0.73854       -0.99136
C         -4.39947        0.15675       -0.55145
C         -2.90907        0.25994        1.56058
C         -4.31348        0.51964        0.96097
H         -0.24587        0.96840        2.16480
H         -0.36674        3.64252        2.72295
H          1.52650        4.91233        1.21025
H          2.81437        3.01836       -0.28959
H         -2.77803        3.04335        0.39228
H          0.19224        1.01435       -2.17971
Cl         1.58721       -3.04436       -0.40451
Cl        -1.65426       -3.01303        0.23153
Pd         0.00707       -1.50156        0.03826
H          2.96500       -1.93199        1.05934
C          3.30736       -0.28686        2.40047
H          2.53266        1.19719       -2.00246
C          2.75051       -0.87738       -2.60308
H          4.83740       -1.62221       -0.24797
H          5.31064       -0.32198        0.81865
H          4.47660        1.36992       -0.63529
H          5.02938        0.17951       -1.79763
H         -1.51059        4.95168       -1.10784
H          0.32254        3.69755       -2.70482
H          4.26776       -0.57993        2.84702
H          3.56785       -0.77809       -3.33082
H         -3.40863       -1.76933       -0.66535
C         -2.93525       -0.70646       -2.49198
H         -2.51694        1.15559        2.05670
C         -2.91345       -0.92037        2.53088
H         -5.36200       -0.32156       -0.79102
H         -4.37233        1.07541       -1.15585
H         -4.61500        1.56525        1.12158
H         -5.04908       -0.07530        1.52013
H         -3.88416       -0.64246       -3.04255
H         -3.18663       -1.82634        1.97426
C          2.17105       -0.73252        3.30472
H          1.20651       -0.45509        2.88437
H          2.16434       -1.81736        3.42704
H          2.23698       -0.28773        4.30021
C          1.42294       -0.92126       -3.33738
H          0.59609       -1.03853       -2.63939
H          1.24980       -0.00368       -3.90284
H          1.37251       -1.75382       -4.04288
C         -2.15077       -1.91902       -2.96994
H         -1.23647       -2.05323       -2.39365
H         -2.73081       -2.83574       -2.84768
H         -1.87333       -1.84284       -4.02365
C         -1.60259       -1.13449        3.26784
H         -1.31686       -0.24796        3.83689
H         -1.66156       -1.96849        3.97098
H         -0.79259       -1.35881        2.57540
H          3.34376        0.80808        2.33157
H          2.93514       -1.83284       -2.09550
H         -2.40228        0.22262       -2.73081
H         -3.72259       -0.77627        3.26057
