111
-148.55487437
P         -2.67859        2.06400       -0.36911
P          0.01058        0.54338        0.33437
C         -1.92759        2.26968        1.26845
C         -0.73170        1.64593        1.55126
C         -3.39471        3.65620       -0.98437
C         -2.52972        4.28030       -2.05757
C         -2.54675        3.03932        2.23252
H         -3.49021        3.51154        2.01256
C         -1.96012        3.18626        3.47782
H         -2.44311        3.78653        4.23149
C         -0.75878        2.56310        3.75689
H         -0.30394        2.67508        4.72734
C         -0.14428        1.78648        2.79103
H          0.78463        1.27830        2.99738
Pd        -1.11752        0.93464       -1.64262
Cl        -2.42180        1.31400       -3.42844
Cl         0.48242       -0.16334       -2.77773
C         -4.80321        3.24079       -1.44751
C         -4.19249        1.00003       -0.36978
H         -2.95334        5.22204       -2.41419
H         -1.52102        4.47963       -1.68794
H         -2.43723        3.61575       -2.91736
H         -4.76430        2.99788       -2.51836
H         -5.50147        4.08721       -1.36108
H         -4.07587        0.30816       -1.21477
C         -5.32288        2.00622       -0.65612
C         -4.33351        0.23982        0.93096
H         -3.46228        4.32034       -0.11322
H         -5.75177        2.33779        0.29953
H         -6.14697        1.51341       -1.19404
H         -5.23925       -0.37099        0.94095
H         -3.47873       -0.41950        1.09596
H         -4.38620        0.92614        1.77809
C         -1.15534       -3.77633        1.19271
C         -0.38842       -3.45723        0.04314
C         -0.09187       -2.12674       -0.19539
C         -0.44403       -1.15025        0.69715
C         -1.09135       -1.46520        1.86284
C         -1.43770       -2.77360        2.15561
O         -1.66911       -5.08923        1.36537
C          0.10790       -4.51598       -0.95351
H          0.40114       -1.82384       -1.10269
H         -1.32851       -0.66769        2.54421
C         -2.13146       -3.08747        3.49066
C          4.54295        0.87591        0.05264
C          3.72783        1.61179       -0.84530
C          2.35254        1.53199       -0.70000
C          1.78863        0.69529        0.22669
C          2.56976       -0.10026        1.02399
C          3.95164       -0.05897        0.93999
O          5.94630        1.09317        0.08316
C          4.30997        2.47830       -1.97353
H          1.69771        2.11264       -1.32658
H          2.07861       -0.76674        1.71217
C          4.78518       -1.01205        1.81083
C         -0.93300       -4.69067       -2.06953
C          1.44544       -4.07356       -1.59142
C          0.37128       -5.86082       -0.25241
C         -3.65511       -3.03574        3.30104
C         -1.70992       -4.47168        4.01624
C         -1.73782       -2.05401        4.57051
C         -2.93495       -5.30188        0.75311
H         -0.60317       -5.43000       -2.79887
H         -1.89021       -5.01623       -1.66938
H         -1.09634       -3.74915       -2.59351
H          1.86811       -4.87368       -2.19852
H          1.31659       -3.21174       -2.24435
H          2.17414       -3.81522       -0.82363
H          0.78318       -6.59145       -0.94809
H          1.07993       -5.73413        0.56544
H         -0.54246       -6.27959        0.16120
H         -3.98488       -3.75508        2.55571
H         -4.17212       -3.25769        4.23425
H         -3.96951       -2.04670        2.96969
H         -2.15082       -4.67123        4.99259
H         -2.02828       -5.26443        3.34358
H         -0.62649       -4.53131        4.11442
H         -2.12522       -2.34756        5.54589
H         -0.65429       -1.97121        4.65208
H         -2.14302       -1.06730        4.35014
H         -3.64876       -5.64347        1.50261
H         -3.29758       -4.37933        0.29792
H         -2.84893       -6.07451       -0.01057
C          6.35309        2.13524        0.96079
C          4.52090        3.91065       -1.46117
C          5.63919        1.89708       -2.48905
C          3.34218        2.52042       -3.17892
C          5.11721       -0.32402        3.14334
C          3.99980       -2.31028        2.10797
C          6.08103       -1.42647        1.09032
H          4.92345        4.55053       -2.24601
H          3.57858        4.34186       -1.12405
H          5.21285        3.93151       -0.62260
H          5.50589        0.86549       -2.81321
H          6.01738        2.47222       -3.33381
H          6.40345        1.90726       -1.71601
H          2.43239        3.07213       -2.94752
H          3.80681        3.01400       -4.03210
H          3.06222        1.51302       -3.48609
H          4.20515       -0.05061        3.67346
H          5.69879       -0.98211        3.78845
H          5.69262        0.58480        2.98448
H          4.63372       -3.03894        2.61272
H          3.14594       -2.12562        2.75824
H          3.63762       -2.76420        1.18595
H          5.85547       -1.87514        0.12345
H          6.64208       -2.15196        1.67882
H          6.72956       -0.57096        0.91798
H          7.04868        1.73835        1.70004
H          6.86584        2.91213        0.39402
H          5.48852        2.56501        1.46820
