111
-148.55318117
P         -1.61487        2.79392       -0.19639
P         -0.50445       -0.09977        0.47706
C         -1.71480        2.15139        1.50134
C         -1.29621        0.86624        1.77575
C         -0.37952        4.16808       -0.27398
C          0.78060        3.79139       -1.17076
C         -2.17414        2.95426        2.52604
H         -2.45773        3.97266        2.31765
C         -2.24169        2.45678        3.81606
H         -2.60491        3.08297        4.61456
C         -1.83794        1.16263        4.08302
H         -1.88536        0.77756        5.08832
C         -1.35260        0.36774        3.06019
H         -0.99877       -0.63251        3.25550
Pd        -1.22674        0.90082       -1.47185
Cl        -2.30986        1.88873       -3.16455
Cl        -0.64586       -0.99496       -2.53387
C         -1.20507        5.36934       -0.77839
C         -3.14012        3.70436       -0.72113
H          0.42932        3.56061       -2.17860
H          1.50585        4.60479       -1.24859
H          1.30293        2.90794       -0.79795
H         -1.02276        5.49290       -1.85466
H         -0.84951        6.30072       -0.31258
H         -3.26369        3.48965       -1.79031
C         -2.72954        5.17611       -0.53605
C         -4.37530        3.27511        0.04156
H         -0.04437        4.33276        0.75846
H         -2.98642        5.49309        0.48388
H         -3.31920        5.82421       -1.20248
H         -4.55442        2.20320       -0.06898
H         -4.27412        3.48100        1.10722
H         -5.26366        3.80470       -0.30994
C         -0.96428       -4.61561        0.81440
C          0.31106       -4.02163        0.99296
C          0.41446       -2.64573        0.87728
C         -0.69280       -1.86756        0.66271
C         -1.94115       -2.42633        0.58684
C         -2.11672       -3.79652        0.69748
O         -1.08184       -6.02810        0.72092
C          1.57904       -4.84523        1.26844
H          1.37258       -2.15987        0.93790
H         -2.78090       -1.77222        0.42490
C         -3.54065       -4.37301        0.65187
C          3.79865        1.32626        0.04307
C          3.26818        0.38915       -0.87995
C          1.95650       -0.01984       -0.71561
C          1.21281        0.39746        0.35536
C          1.75113        1.22582        1.30418
C          3.05452        1.68081        1.19762
O          5.05404        1.94082       -0.20957
C          4.06519       -0.14749       -2.07814
H          1.47397       -0.63949       -1.45114
H          1.12713        1.53390        2.12437
C          3.62077        2.58477        2.30327
C          2.60737       -4.01541        2.07105
C          1.25615       -6.09395        2.10880
C          2.21998       -5.25392       -0.06659
C         -4.55803       -3.36164        1.22764
C         -3.92025       -4.67147       -0.80658
C         -3.65123       -5.65086        1.50344
C         -0.97311       -6.53380       -0.60385
H          3.44874       -4.63576        2.37907
H          3.01498       -3.19662        1.47974
H          2.15294       -3.59839        2.96940
H          2.16300       -6.64538        2.35585
H          0.76549       -5.81311        3.04013
H          0.59458       -6.77163        1.57504
H          3.13458       -5.82324        0.09723
H          1.54455       -5.86682       -0.65800
H          2.47093       -4.37393       -0.65808
H         -4.66424       -2.48731        0.58730
H         -5.54547       -3.81421        1.31583
H         -4.25351       -3.02712        2.21903
H         -4.93246       -5.06938       -0.87345
H         -3.87259       -3.76507       -1.40968
H         -3.24372       -5.39783       -1.24995
H         -3.34298       -5.45543        2.52996
H         -4.67556       -6.02221        1.52161
H         -3.02106       -6.44540        1.11211
H         -0.14527       -7.24056       -0.65837
H         -1.88799       -7.06265       -0.87030
H         -0.80448       -5.71897       -1.30914
C          4.97202        3.13419       -0.97943
C          5.56849       -0.22822       -1.75769
C          3.60557       -1.57952       -2.43666
C          3.82673        0.76332       -3.29220
C          5.13676        2.37501        2.46881
C          3.32146        4.05254        1.96207
C          2.96891        2.25463        3.66558
H          5.98799        0.75606       -1.56654
H          5.73940       -0.84109       -0.87327
H          6.12274       -0.66703       -2.58699
H          4.24956       -2.01257       -3.20164
H          3.64270       -2.22745       -1.56147
H          2.59024       -1.59233       -2.82982
H          2.76684        0.79976       -3.54341
H          4.15377        1.78098       -3.09242
H          4.36838        0.40047       -4.16526
H          5.67805        2.66523        1.57186
H          5.52669        2.96869        3.29523
H          5.35937        1.32743        2.66884
H          2.24739        4.21799        1.88328
H          3.70955        4.71926        2.73164
H          3.77003        4.33702        1.01340
H          1.91586        2.53166        3.68705
H          3.45894        2.80091        4.47122
H          3.04902        1.19042        3.88582
H          5.54769        3.01869       -1.89759
H          3.93398        3.35713       -1.22795
H          5.39651        3.96378       -0.41427
