72
-108.39457004
Cl        -1.66736        0.91858        2.70536
Cl         1.15737       -0.33396        2.70216
P          1.06971       -1.17560       -0.31312
P         -2.24143        0.12626       -0.37595
C         -3.17389       -1.51444       -0.15053
C         -3.47867       -1.71954        1.33515
C         -4.46847       -1.50465       -0.95617
C         -3.37832        1.62291       -0.08311
C         -4.24104        1.88109       -1.32434
C         -1.42571        0.51252       -2.03955
C         -1.60447       -0.55326       -3.10042
C          1.16737        0.19890       -1.50238
C          0.02356        0.97263       -1.98864
C          0.54929        2.01474       -2.87343
C          1.99089        1.88300       -2.93448
C          2.36999        0.77218       -2.08248
C         -2.28772       -2.66219       -0.60951
H         -2.56930       -1.69816        1.93550
H         -4.15511       -0.96466        1.72671
H         -5.17585       -0.77333       -0.56944
H         -4.95699       -2.47912       -0.90658
C         -4.29167        1.43353        1.12413
H         -3.65985        2.26852       -2.15975
H         -5.00633        2.62782       -1.10616
H         -1.99174        1.39164       -2.36409
H         -0.96533       -1.40766       -2.89347
H         -1.31039       -0.18083       -4.08400
H         -2.63565       -0.89612       -3.17455
H         -0.05489        2.70495       -3.46535
H          2.66751        2.48759       -3.54262
Pd        -0.49190       -0.20655        1.15846
H          3.37928        0.36954       -1.97857
C         -2.45688        2.81119        0.15475
H         -4.74960        0.97955       -1.65967
H         -3.72898        1.14788        2.01042
H         -4.81197        2.36365        1.35731
H         -5.05679        0.68280        0.93546
H         -1.72040        2.90477       -0.64428
H         -3.02472        3.74261        0.19997
H         -1.92958        2.70394        1.10129
H         -3.95336       -2.68859        1.49741
H         -4.28625       -1.28248       -2.00626
H         -1.34944       -2.66900       -0.05661
H         -2.77558       -3.62284       -0.43614
H         -2.06543       -2.60269       -1.67185
C          2.61682       -1.46192        0.59453
C          3.74639       -0.67994        0.60422
C          4.66495       -1.29477        1.45359
C          4.05940       -2.43224        1.92673
O          2.80370       -2.54795        1.40413
H          3.89124        0.24464        0.07362
H          5.65428       -0.94262        1.69620
H          4.49723       -3.14319        2.61667
C          0.73405       -2.74552       -1.13275
C          1.10881       -3.94357       -0.57823
C          0.70549       -4.94904       -1.45778
C          0.10025       -4.31938       -2.51764
O          0.10848       -2.96624       -2.32921
H          1.63666       -4.06206        0.35457
H          0.84782       -6.00996       -1.33255
H         -0.32692       -4.80957       -3.38369
Fe         1.37216        2.12592       -0.99539
C          2.15186        4.00021       -0.57523
C          2.98097        2.94554       -0.01738
C          2.19142        2.19942        0.94333
C          0.85417        2.74798        0.92266
C          0.82630        3.86714       -0.00009
H          2.46841        4.75564       -1.29770
H          4.04183        2.79182       -0.22819
H          2.52100        1.36885        1.56760
H          0.04255        2.41111        1.56909
H         -0.02294        4.52647       -0.19088
