87
-129.18124130
P         -1.65060       -0.42755        0.11103
P          1.57783        0.25190       -0.12991
C         -1.42284        0.82292       -1.17475
C          1.30912       -0.82890       -1.54251
C         -0.52127        0.71358       -2.23101
C         -0.32804        1.82671       -3.07184
C         -1.06011        2.98113       -2.85220
C         -1.94823        3.07102       -1.80275
C         -2.11338        1.99220       -0.95598
C          2.12933       -1.91032       -1.75202
C          1.93249       -2.72441       -2.84997
C          0.91052       -2.44699       -3.73393
C          0.07449       -1.35908       -3.54312
C          0.28795       -0.51798       -2.43268
Cl         1.40226        1.93583        2.53573
Cl        -1.73139        1.37072        2.80902
H         -2.49452        3.98363       -1.62960
H         -2.76204        2.06776       -0.09617
H          2.93376       -2.11155       -1.06467
H          2.57334       -3.57533       -3.01305
H         -0.90971        3.82582       -3.50299
H          0.75193       -3.08224       -4.58876
C         -0.40380       -4.72488       -0.66618
C         -1.23574       -4.09095       -1.57867
C         -1.60943       -2.77420       -1.33318
C         -1.15470       -2.12078       -0.21243
C         -0.36568       -2.76949        0.70849
C          0.02248       -4.07529        0.47545
H         -0.10006       -5.74058       -0.85445
C         -1.69204       -4.80099       -2.80441
H         -2.25065       -2.25459       -2.02543
H         -0.08301       -2.26108        1.61693
H          0.64661       -4.58888        1.18840
C         -5.97506       -0.63196        1.49992
C         -5.68936       -0.28286        0.19462
C         -4.37495       -0.20732       -0.22702
C         -3.35935       -0.47586        0.66118
C         -3.64089       -0.84143        1.95632
C         -4.95619       -0.91038        2.40081
H         -6.99810       -0.69417        1.82981
H         -6.48942       -0.07164       -0.49584
H         -4.13550        0.05311       -1.24588
H         -2.83237       -1.06707        2.63207
C         -5.25833       -1.31018        3.80212
C          4.85247       -1.40142        2.58221
C          4.91833       -0.09736        2.13358
C          3.92946        0.39717        1.30417
C          2.88129       -0.41098        0.93029
C          2.81310       -1.70807        1.38250
C          3.80227       -2.22761        2.20718
H          5.61828       -1.78752        3.23314
H          5.73630        0.53693        2.43361
H          3.96264        1.41756        0.95838
H          1.98922       -2.33162        1.08662
C          3.70718       -3.62792        2.70246
C          2.86177        4.27079       -1.82812
C          3.55318        3.12179       -2.15838
C          3.16415        1.90607       -1.62681
C          2.09550        1.85274       -0.76274
C          1.40620        2.99578       -0.43144
C          1.77365        4.22318       -0.96795
H          3.16284        5.21899       -2.23986
H          4.39205        3.17071       -2.83309
H          3.68177        0.99588       -1.88685
H          0.56835        2.93812        0.24217
C          1.03311        5.45974       -0.59854
Pd        -0.07417        0.57031        1.52384
C          0.66752        1.80304       -4.17982
C         -1.02554       -1.10051       -4.51254
H          1.24681        2.72732       -4.19956
H          1.37336        0.97959       -4.06674
H          0.17294        1.69567       -5.14589
H         -1.56204       -2.02101       -4.74696
H         -1.75062       -0.39049       -4.11291
H         -0.63399       -0.69410       -5.44585
H         -2.09252       -5.78546       -2.55824
H         -2.47572       -4.24246       -3.31815
H         -0.86552       -4.93849       -3.50291
H         -6.22342       -0.91777        4.12560
H         -5.28638       -2.39649        3.89784
H         -4.50008       -0.93047        4.48855
H          3.35843       -4.29774        1.91495
H          4.67613       -3.99443        3.04425
H          3.00773       -3.69630        3.53685
H         -0.00774        5.23664       -0.35932
H          1.48400        5.93433        0.27398
H          1.03756        6.18108       -1.41693
