111
-148.55781143
P         -2.59608        1.94887        1.06633
P          0.14723        0.47583        0.48197
C         -1.46720        1.57498        2.43381
C         -0.25379        0.97769        2.16798
C         -3.46654        3.56444        1.30242
C         -2.91403        4.62549        0.37583
C         -1.81860        1.87117        3.73517
H         -2.77685        2.32008        3.93942
C         -0.94624        1.57442        4.76827
H         -1.21974        1.80484        5.78501
C          0.27212        0.98085        4.49867
H          0.94974        0.74728        5.30331
C          0.61757        0.67737        3.19406
H          1.55709        0.19827        2.96761
Pd        -1.35956        1.63485       -0.84705
Cl        -3.05174        2.37554       -2.11636
Cl         0.00269        1.25104       -2.59585
C         -4.94185        3.19900        1.05196
C         -4.04488        0.80268        0.96454
H         -3.03381        4.32898       -0.66732
H         -3.42971        5.57949        0.50849
H         -1.84765        4.78835        0.54969
H         -5.17888        3.39575       -0.00274
H         -5.60484        3.85908        1.63177
H         -4.13169        0.51669       -0.09239
C         -5.22508        1.70363        1.37349
C         -3.85027       -0.41818        1.83711
H         -3.31589        3.85087        2.35100
H         -5.40120        1.58775        2.45182
H         -6.15176        1.36543        0.88527
H         -2.97811       -0.99372        1.52097
H         -3.69325       -0.12971        2.87807
H         -4.72040       -1.07777        1.80196
C         -1.20935       -3.81755       -0.20451
C         -1.01458       -3.34758        1.11977
C         -0.58569       -2.04311        1.29697
C         -0.41575       -1.20496        0.22702
C         -0.69163       -1.62633       -1.04580
C         -1.13601       -2.91259       -1.29425
O         -1.43952       -5.19898       -0.44073
C         -1.22705       -4.23913        2.35300
H         -0.37041       -1.66317        2.27994
H         -0.54433       -0.92606       -1.84941
C         -1.50901       -3.30296       -2.73257
C          4.57717        0.66247       -0.54041
C          4.03907       -0.48805        0.09099
C          2.68381       -0.50456        0.37487
C          1.89480        0.58790        0.12550
C          2.43032        1.74173       -0.38206
C          3.77708        1.82370       -0.69668
O          5.90278        0.63826       -1.04987
C          4.88519       -1.72441        0.43322
H          2.21712       -1.38581        0.78077
H          1.77091        2.57477       -0.55444
C          4.33456        3.14489       -1.24885
C         -1.63270       -3.39156        3.58064
C         -2.36105       -5.25233        2.11386
C          0.08217       -4.97426        2.67793
C         -2.06598       -2.07990       -3.49815
C         -0.25610       -3.81078       -3.46182
C         -2.60874       -4.37986       -2.74963
C         -0.25447       -5.95188       -0.66724
H         -2.49518       -2.76601        3.35325
H         -1.89826       -4.03216        4.42130
H         -0.81985       -2.74834        3.91445
H         -2.55478       -5.84238        3.00927
H         -3.28222       -4.73916        1.83963
H         -2.11291       -5.94348        1.31215
H          0.39532       -5.60609        1.85032
H          0.88458       -4.26331        2.87415
H         -0.03266       -5.60573        3.55855
H         -2.45422       -2.37665       -4.47206
H         -2.87800       -1.61146       -2.94257
H         -1.29748       -1.32946       -3.67661
H         -0.48748       -4.08579       -4.49051
H          0.51497       -3.04093       -3.48327
H          0.16219       -4.68360       -2.96602
H         -3.48519       -4.04133       -2.19804
H         -2.91710       -4.60902       -3.76937
H         -2.26577       -5.30533       -2.29415
H          0.62498       -5.31191       -0.58450
H         -0.18861       -6.75694        0.06452
H         -0.28709       -6.39752       -1.66123
C          5.99886        0.17668       -2.39172
C          6.33450       -1.33025        0.77055
C          4.31519       -2.44778        1.67531
C          4.86182       -2.70006       -0.75335
C          4.19756        3.15022       -2.77912
C          3.54952        4.34919       -0.68099
C          5.80718        3.34045       -0.84503
H          6.83374       -0.88194       -0.08466
H          6.35553       -0.60763        1.58562
H          6.91695       -2.20013        1.07314
H          4.98321       -3.24591        1.99838
H          4.19600       -1.75402        2.50717
H          3.34876       -2.90538        1.46865
H          5.27356       -2.24186       -1.64930
H          5.44407       -3.59485       -0.53474
H          3.84087       -3.00805       -0.97839
H          4.56813        4.08375       -3.20165
H          4.75646        2.33281       -3.22805
H          3.15396        3.03693       -3.07193
H          3.51520        4.31116        0.40749
H          4.02150        5.28851       -0.96832
H          2.52786        4.37801       -1.05673
H          6.44327        2.57221       -1.27726
H          5.91724        3.29469        0.23790
H          6.18136        4.30625       -1.18370
H          5.01001       -0.06954       -2.78070
H          6.45189        0.94927       -3.01277
H          6.63550       -0.70702       -2.43057
