105
-153.06509179
Cl         0.19898        3.37378        2.30666
Pd        -0.29708        1.88067        0.70366
P         -0.78631        0.47249       -1.15214
N          0.36799       -0.78295       -1.58360
C          0.49427       -2.16351       -1.35256
C         -0.01536       -2.82741       -0.20403
C          0.39556       -4.14956        0.07061
C          0.08465       -4.76828        1.41260
C          1.13063       -5.81104        1.82904
C          1.25841       -6.87898        0.73794
C          1.67432       -6.25794       -0.60878
C          1.19304       -4.84332       -0.84386
C          1.62397       -4.19354       -1.99380
C          1.30720       -2.88101       -2.22871
H          1.69440       -2.37657       -3.09723
H          2.25112       -4.72670       -2.68836
H          2.76850       -6.25927       -0.68492
H          1.96541       -7.66335        1.04240
H          2.09964       -5.31609        1.96994
H          0.00467       -3.98079        2.17225
C         -0.77367       -2.07346        0.82360
C         -0.07202       -1.09923        1.57163
C         -0.72132       -0.44386        2.61439
C         -2.03144       -0.72705        2.90230
C         -2.74261       -1.67330        2.17142
C         -4.17534       -1.94487        2.54498
C         -4.64434       -3.33659        2.09900
C         -4.35587       -3.53720        0.60868
C         -2.85692       -3.38043        0.29156
C         -2.11873       -2.35346        1.12222
H         -2.36791       -4.35049        0.41189
H         -4.92997       -2.80024        0.03678
H         -5.71158       -3.48306        2.31812
H         -4.80882       -1.17467        2.08917
H         -2.52796       -0.20506        3.70253
H         -0.18153        0.29750        3.17685
N          1.23483       -0.78575        1.21275
P          1.78883        0.88270        1.18684
C          2.58693        1.20650       -0.38907
C          2.29597        2.36564       -1.06907
C          2.76904        2.54583       -2.35479
C          3.52879        1.56206       -2.97172
C          3.84268        0.41455       -2.25697
C          3.37635        0.23918       -0.96678
H          3.59996       -0.66460       -0.42256
H          4.44863       -0.34518       -2.72082
C          4.02793        1.74884       -4.36199
H          2.53147        3.44608       -2.89552
H          1.68796        3.12271       -0.59990
C          2.95358        1.11828        2.52763
C          3.89501        0.13901        2.73864
C          4.82515        0.28594        3.75303
C          4.82020        1.41783        4.55727
C          3.85261        2.38870        4.33632
C          2.92521        2.23778        3.32320
H          2.16321        2.97990        3.15856
H          3.82726        3.26147        4.96624
C          5.80419        1.56519        5.66535
H          5.56055       -0.48094        3.92678
H          3.89236       -0.74048        2.11388
H          1.59066       -1.23721        0.37762
H          1.21952       -0.26642       -1.77412
C         -0.64742        1.66839       -2.49068
C         -1.12404        2.95144       -2.36840
C         -0.97649        3.84686       -3.40989
C         -0.35040        3.46297       -4.58792
C          0.09976        2.15552       -4.70749
C         -0.04853        1.26372       -3.66056
H          0.30702        0.25035       -3.75032
H          0.57126        1.84109       -5.62286
C         -0.20280        4.42185       -5.71740
H         -1.34801        4.85275       -3.31356
H         -1.61436        3.24631       -1.45674
C         -2.42606       -0.22741       -1.34688
C         -2.57321       -1.15177       -2.35461
C         -3.82513       -1.66448       -2.64799
C         -4.93990       -1.25239       -1.93132
C         -4.77442       -0.30958       -0.92565
C         -3.52341        0.20234       -0.64030
H         -3.40506        0.96854        0.10508
H         -5.63513        0.03301       -0.37708
C         -6.29060       -1.78478       -2.26278
H         -3.94289       -2.38582       -3.43839
H         -1.70372       -1.46347       -2.91203
Cl        -2.35953        2.75996        0.55279
H          1.32645       -6.88563       -1.43886
H          0.88055       -6.26103        2.80021
H          0.29264       -7.38732        0.62256
H         -0.89739       -5.24976        1.37480
H         -4.72481       -4.51578        0.27079
H         -2.71906       -3.13047       -0.76655
H         -4.29777       -1.82648        3.62915
H         -4.11361       -4.10240        2.67863
H          3.40223        2.45123       -4.91461
H          5.04754        2.13639       -4.35916
H          4.02669        0.80484       -4.90880
H          6.01887        2.61608        5.86431
H          5.42150        1.11990        6.58467
H          6.74800        1.07553        5.42140
H         -0.11663        5.44706       -5.35467
H          0.69008        4.20312       -6.30487
H         -1.06519        4.37151       -6.38343
H         -6.23982       -2.83926       -2.53801
H         -6.97005       -1.69671       -1.41382
H         -6.72686       -1.23863       -3.10017
