72
-98.10131394
Fe        -0.00947        2.80342       -0.04605
P          1.86249       -0.05518       -0.04672
P         -1.82874       -0.08442       -0.06495
C          1.43723        1.59973        0.62374
C          0.49724        1.87073        1.69744
C          0.43929        3.30957        1.88745
C          1.38176        3.92717        0.97209
C          2.00685        2.86921        0.19673
C         -1.39648        1.55561       -0.75585
C         -2.00876        2.82727       -0.40494
C         -1.35537        3.86705       -1.18210
C         -0.35953        3.23484       -2.02880
C         -0.40043        1.80391       -1.78392
C          3.20885       -0.75113        1.02592
C          4.42234        0.06238        0.54449
C          2.92129        0.17496       -1.56041
C          4.33356        0.40999       -0.97163
C         -3.26410       -0.75858       -1.02717
C         -4.46685       -0.26027       -0.20916
C         -2.66321        0.10281        1.58491
C         -4.14435       -0.22619        1.30702
H         -0.05551        1.12579        2.26824
H         -0.17405        3.83247        2.62505
H          1.59251        4.99583        0.88906
H          2.76461        3.00197       -0.57810
H         -2.81856        2.96942        0.31399
H          0.22510        1.04980       -2.26171
Cl         1.60737       -3.11378       -0.20308
Cl        -1.60248       -3.06346        0.17460
Pd         0.02831       -1.51733       -0.02959
H          3.33031       -1.80596        0.75433
C          2.93438       -0.62176        2.52187
H          2.55361        1.06643       -2.08222
C          2.89312       -1.03002       -2.49973
H          5.35803       -0.47085        0.77387
H          4.46605        0.98993        1.13417
H          4.65516        1.44772       -1.14466
H          5.05374       -0.20482       -1.52958
H         -1.58753        4.93401       -1.15013
H          0.28982        3.74299       -2.74537
H          3.88048       -0.73711        3.06889
H          3.71333       -0.93332       -3.22487
H         -3.19905       -1.85145       -0.97912
C         -3.28431       -0.30244       -2.48167
H         -2.54201        1.15416        1.87137
C         -2.04136       -0.80776        2.63741
H         -5.35215       -0.88280       -0.41165
H         -4.73157        0.74969       -0.55289
H         -4.80104        0.48430        1.83074
H         -4.37377       -1.20839        1.74180
H         -4.25466       -0.56396       -2.92619
H         -0.95418       -0.67442        2.63959
C          1.92071       -1.63043        3.03594
H          0.97066       -1.53652        2.51317
H          2.26745       -2.65349        2.87859
H          1.72246       -1.50890        4.10324
C          1.58315       -1.21425       -3.24490
H          1.33215       -0.32973       -3.83315
H          1.61919       -2.06393       -3.93060
H          0.76147       -1.39647       -2.55480
C         -2.15794       -0.89999       -3.30551
H         -1.18934       -0.61430       -2.89897
H         -2.19903       -1.99085       -3.30124
H         -2.18768       -0.57052       -4.34656
C         -2.59472       -0.56999        4.03426
H         -2.13404       -1.22810        4.77451
H         -2.42105        0.45872        4.35584
H         -3.67213       -0.74018        4.07007
H          2.60285        0.40257        2.73469
H          3.12903       -1.93055       -1.91792
H         -3.23951        0.79412       -2.51029
H         -2.19653       -1.85223        2.33637
