171
-217.83744827
P         -1.68110        0.44292       -0.34075
P          1.61910       -0.40173        0.07088
C         -0.79800        1.41453       -1.57251
C          0.88019       -1.30214       -1.31110
C          0.12232        0.80783       -2.41980
C          0.86607        1.60950       -3.30647
C          0.63921        2.97583       -3.33026
C         -0.29454        3.55685       -2.49727
C         -1.00550        2.77140       -1.61103
C          0.92076       -2.67422       -1.23624
C          0.40271       -3.44721       -2.25666
C         -0.17641       -2.83628       -3.34761
C         -0.25948       -1.45640       -3.42989
C          0.27958       -0.66927       -2.39406
Cl         1.23154        0.53010        3.09886
Cl        -1.93096       -0.20771        2.90085
C         -0.90942       -0.82998       -4.61444
C          1.88377        1.01779       -4.21724
H         -0.46854        4.61969       -2.53500
H         -1.72794        3.21837       -0.94772
H          1.36338       -3.14567       -0.37236
H          0.45785       -4.52188       -2.20200
H          1.20674        3.58671       -4.01190
H         -0.58594       -3.43395       -4.14442
C         -3.67672       -3.37367       -1.70895
C         -2.85890       -3.40416       -0.58674
C         -2.24971       -2.21778       -0.20003
C         -2.42646       -1.07185       -0.93476
C         -3.23069       -1.05925       -2.04777
C         -3.88310       -2.21813       -2.45276
H         -4.18838       -4.27244       -1.99977
H         -1.64881       -2.17141        0.69139
H         -3.35781       -0.13326       -2.58210
C         -4.89138        2.86547        1.75823
C         -3.56011        3.19918        1.97892
C         -2.58803        2.47391        1.30201
C         -2.94006        1.44026        0.47033
C         -4.25970        1.11390        0.27864
C         -5.26663        1.82784        0.91452
H         -5.66267        3.41852        2.26020
H         -1.54508        2.70331        1.43757
H         -4.49825        0.28590       -0.36442
C          4.86755       -3.14512        1.68940
C          4.04358       -2.49548        2.60011
C          3.05626       -1.66148        2.09830
C          2.89385       -1.48677        0.74832
C          3.71974       -2.13806       -0.13659
C          4.72202       -2.98663        0.31707
H          5.64826       -3.78792        2.05023
H          2.41626       -1.12316        2.77215
H          3.56166       -1.99485       -1.19159
C          3.80804        3.41669       -1.00644
C          4.24810        2.21463       -1.54435
C          3.53778        1.06406       -1.22321
C          2.44178        1.12459       -0.39720
C          2.02508        2.32296        0.12831
C          2.69696        3.49989       -0.17762
H          4.36536        4.31113       -1.21500
H          3.84740        0.10743       -1.60353
H          1.18308        2.33078        0.79684
Pd        -0.23319        0.11101        1.45313
C         -4.03864       -5.00687        0.92580
C         -2.70419       -4.69701        0.22575
C         -1.60136       -4.56264        1.29550
C         -2.32674       -5.86109       -0.71006
H         -3.96596       -5.91663        1.52145
H         -4.32372       -4.18990        1.58850
H         -4.83967       -5.14295        0.19975
H         -0.64769       -4.29410        0.84170
H         -1.85762       -3.80388        2.03441
H         -1.46246       -5.50295        1.82866
H         -2.17200       -6.77994       -0.14472
H         -3.10740       -6.05401       -1.44447
H         -1.40664       -5.63920       -1.24886
C         -6.25908       -2.61074       -3.14169
C         -4.85031       -2.24394       -3.64468
C         -4.37825       -3.29388       -4.66762
C         -4.92764       -0.87334       -4.34519
H         -6.97635       -2.62005       -3.96220
H         -6.26979       -3.59648       -2.67807
H         -6.60330       -1.88972       -2.40080
H         -5.03561       -3.31397       -5.53670
H         -3.36959       -3.07248       -5.01352
H         -4.36947       -4.29343       -4.23478
H         -5.28998       -0.10428       -3.66329
H         -3.95270       -0.56756       -4.72247
H         -5.61224       -0.91035       -5.19246
C         -4.31535        4.80704        3.80140
C         -3.14212        4.33972        2.91771
C         -2.65554        5.52731        2.07067
C         -2.00810        3.85884        3.84598
H         -5.11522        5.24015        3.20148
H         -4.72448        3.97657        4.37659
H         -3.98774        5.57094        4.50647
H         -3.45663        5.89910        1.43208
H         -2.31711        6.34789        2.70303
H         -1.82901        5.23328        1.42620
H         -2.31661        2.97420        4.40260
H         -1.11020        3.60336        3.28617
H         -1.73724        4.63269        4.56388
C         -7.35149        1.07115        2.08068
C         -6.75124        1.48557        0.72508
C         -6.94331        0.32366       -0.27041
C         -7.49443        2.71936        0.18081
H         -6.82051        0.21131        2.48874
H         -7.28466        1.88044        2.80686
H         -8.40234        0.80161        1.97648
H         -6.45570       -0.58374        0.08570
H         -8.00132        0.09799       -0.40292
H         -6.53457        0.57515       -1.24892
H         -7.43699        3.55612        0.87589
H         -7.06284        3.04092       -0.76691
H         -8.54833        2.49743        0.01374
C          2.86923       -3.19225        4.70268
C          4.18953       -2.65334        4.12020
C          4.50665       -1.28081        4.74277
C          5.32155       -3.63193        4.48664
H          2.04469       -2.50458        4.51813
H          2.61251       -4.15077        4.25210
H          2.94779       -3.33527        5.78018
H          3.70624       -0.56635        4.55393
H          4.63324       -1.36155        5.82215
H          5.42558       -0.87130        4.32389
H          5.13314       -4.62217        4.07220
H          6.28259       -3.27749        4.11446
H          5.40616       -3.73753        5.56816
C          5.60961       -5.23559       -0.36309
C          5.66274       -3.72273       -0.64756
C          7.09730       -3.20359       -0.44449
C          5.26090       -3.49487       -2.11870
H          4.59174       -5.61073       -0.46848
H          6.24519       -5.78503       -1.05738
H          5.94805       -5.46372        0.64674
H          7.44091       -3.38333        0.57365
H          7.79141       -3.69717       -1.12449
H          7.14779       -2.13067       -0.62972
H          5.92213       -4.04314       -2.78957
H          4.24305       -3.83782       -2.30429
H          5.32443       -2.44060       -2.38618
C          5.43981        3.19844       -3.53422
C          5.53232        2.17554       -2.38571
C          5.77162        0.77892       -2.99307
C          6.72784        2.52507       -1.48103
H          5.34349        4.21526       -3.15612
H          6.33229        3.16244       -4.15878
H          4.57856        2.99546       -4.16894
H          5.91752        0.03233       -2.21288
H          4.93174        0.46984       -3.61445
H          6.66457        0.77656       -3.61799
H          6.80499        1.81758       -0.65552
H          7.66294        2.49608       -2.04007
H          6.62124        3.52292       -1.05669
C          0.94538        4.75274        1.16778
C          2.29212        4.85067        0.42754
C          2.15396        5.90244       -0.68955
C          3.37377        5.29518        1.42747
H          1.01132        4.07224        2.01616
H          0.64287        5.72678        1.55186
H          0.16300        4.39803        0.49792
H          3.10201        6.07355       -1.19749
H          1.42868        5.57922       -1.43482
H          1.81882        6.85757       -0.28551
H          3.11361        6.24881        1.88646
H          3.48923        4.55753        2.22143
H          4.33925        5.41089        0.93589
H         -1.71592       -1.45632       -4.99580
H          2.80611        1.59761       -4.19297
H         -0.19089       -0.68751       -5.42248
H         -1.33658        0.14239       -4.36524
H          1.52530        1.00420       -5.24741
H          2.13119       -0.00516       -3.93008
