111
-148.55482861
P         -2.64671        1.82329        0.63047
P          0.24178        0.51647        0.43306
C         -1.66665        1.54486        2.13562
C         -0.39042        1.03305        2.03934
C         -3.78098        3.27192        0.85549
C         -3.58317        4.31658       -0.22038
C         -2.19509        1.83743        3.37732
H         -3.20065        2.21695        3.45360
C         -1.43886        1.62615        4.51736
H         -1.85193        1.85564        5.48605
C         -0.15768        1.11947        4.41591
H          0.43025        0.95232        5.30339
C          0.36579        0.81633        3.17229
H          1.35686        0.40195        3.07688
Pd        -1.11123        1.61330       -1.09341
Cl        -2.75511        2.31018       -2.45199
Cl         0.42283        1.34000       -2.70447
C         -5.18009        2.61950        0.84676
C         -3.87567        0.48148        0.29334
H         -4.21722        5.19046       -0.05306
H         -2.54482        4.65348       -0.26177
H         -3.83808        3.91195       -1.20040
H         -5.90652        3.31697        0.40482
H         -5.52200        2.45254        1.87879
H         -3.55697       -0.01948       -0.63130
C         -5.18575        1.26661        0.07941
C         -3.92826       -0.50569        1.43906
H         -3.55100        3.70238        1.83912
H         -6.04055        0.64772        0.38929
H         -5.33170        1.45969       -0.99374
H         -2.95349       -0.96768        1.60791
H         -4.21908       -0.00579        2.36483
H         -4.65141       -1.30266        1.25016
C         -1.43994       -3.64214       -0.33848
C         -1.11462       -2.80009       -1.43217
C         -0.58168       -1.55313       -1.15991
C         -0.33386       -1.15288        0.12623
C         -0.54129       -2.00475        1.17868
C         -1.04694       -3.27781        0.97548
O         -2.19870       -4.82310       -0.55367
C         -1.39392       -3.18727       -2.89175
H         -0.36873       -0.85840       -1.95341
H         -0.32207       -1.65253        2.17160
C         -1.18976       -4.22117        2.17959
C          4.78299        0.58948        0.11870
C          4.13112       -0.47598        0.79484
C          2.74710       -0.46773        0.84586
C          2.02494        0.58023        0.33697
C          2.65452        1.67118       -0.20159
C          4.03597        1.72539       -0.29322
O          6.15793        0.48274       -0.21376
C          4.86666       -1.63565        1.48788
H          2.21242       -1.29750        1.27712
H          2.04882        2.47987       -0.57418
C          4.66943        3.01655       -0.83850
C         -1.25971       -4.70643       -3.09910
C         -2.80732       -2.72100       -3.27388
C         -0.37911       -2.50925       -3.84054
C         -0.06367       -3.95953        3.20609
C         -2.54472       -3.97723        2.86123
C         -1.06909       -5.69462        1.75020
C         -3.60327       -4.63301       -0.43596
H         -0.27410       -5.05045       -2.78737
H         -2.00152       -5.25251       -2.52165
H         -1.39661       -4.97257       -4.14690
H         -3.03407       -2.96991       -4.31016
H         -3.56017       -3.18784       -2.64318
H         -2.90098       -1.64136       -3.15761
H         -0.49170       -2.88263       -4.85805
H         -0.52147       -1.43032       -3.87969
H          0.64340       -2.70913       -3.52151
H         -0.16711       -2.98500        3.68082
H         -0.08298       -4.70558        4.00019
H          0.91432       -4.00514        2.72742
H         -2.67605       -4.63963        3.71643
H         -2.61830       -2.94999        3.21729
H         -3.36900       -4.14895        2.17282
H         -1.10187       -6.35858        2.61367
H         -1.87862       -5.98178        1.08402
H         -0.12925       -5.86552        1.22626
H         -3.82922       -3.58781       -0.22083
H         -4.09035       -4.92534       -1.36614
H         -3.99289       -5.26089        0.36509
C          6.37270       -0.14264       -1.46816
C          4.69457       -2.91912        0.65858
C          6.36473       -1.34523        1.68401
C          4.26297       -1.85873        2.89268
C          4.01100        4.23885       -0.16112
C          6.17738        3.10014       -0.54430
C          4.43516        3.09632       -2.35627
H          5.18733       -3.76308        1.14061
H          3.64039       -3.16864        0.54112
H          5.12116       -2.80537       -0.33608
H          6.50747       -0.40231        2.21068
H          6.84560       -2.13414        2.26190
H          6.88144       -1.27542        0.72981
H          3.22529       -2.18421        2.84140
H          4.81594       -2.62471        3.43582
H          4.29958       -0.93976        3.47704
H          4.49636        5.16350       -0.47248
H          2.95654        4.32524       -0.41752
H          4.09025        4.16633        0.92321
H          6.58479        4.06325       -0.85086
H          6.36867        2.97304        0.52066
H          6.72667        2.32706       -1.07623
H          4.84865        4.01715       -2.76663
H          3.37066        3.07339       -2.58751
H          4.90324        2.25974       -2.87121
H          7.44355       -0.19267       -1.66646
H          5.96063       -1.15025       -1.45934
H          5.88639        0.42725       -2.25806
