105
-153.05825845
Cl         0.25453        3.14353        2.42857
Pd        -0.20982        1.77434        0.70303
P         -0.68507        0.44469       -1.21618
N          0.43497       -0.83420       -1.69586
C          0.46259       -2.21425       -1.43800
C         -0.01523       -2.82962       -0.24370
C          0.26708       -4.19476       -0.01767
C          0.03712       -4.79403        1.35064
C         -0.19827       -6.30940        1.30282
C          0.95972       -6.99587        0.57115
C          1.11404       -6.45330       -0.86124
C          0.87620       -4.96738       -1.01081
C          1.28249       -4.35519       -2.18878
C          1.11172       -3.00959       -2.38175
H          1.47108       -2.54271       -3.28262
H          1.76188       -4.95041       -2.94759
H          2.11509       -6.68749       -1.24521
H          1.88963       -6.82485        1.12808
H         -0.33132       -6.72258        2.31266
H          0.92194       -4.58290        1.96344
C         -0.64630       -2.05315        0.85956
C          0.17565       -1.18453        1.62716
C         -0.34580       -0.57479        2.76695
C         -1.64927       -0.79436        3.13052
C         -2.47706       -1.62938        2.38561
C         -3.89640       -1.83292        2.84365
C         -4.47648       -3.17418        2.37412
C         -4.30984       -3.31801        0.85880
C         -2.83149       -3.22584        0.43733
C         -1.98027       -2.27063        1.24740
H         -2.38713       -4.22523        0.48670
H         -4.88224       -2.52549        0.36430
H         -5.53134       -3.27324        2.66721
H         -4.50936       -1.00809        2.46098
H         -2.05125       -0.30272        4.00004
H          0.27331        0.10498        3.32445
N          1.41928       -0.84235        1.08805
P          1.89210        0.82981        1.08704
C          2.70649        1.18488       -0.47082
C          2.42238        2.35756       -1.13032
C          2.88407        2.54836       -2.41904
C          3.61805        1.55983       -3.05982
C          3.91610        0.39346       -2.36836
C          3.46108        0.20672       -1.07518
H          3.65499       -0.71545       -0.54981
H          4.49739       -0.37256       -2.85283
C          4.10353        1.76144       -4.45287
H          2.65431        3.45935       -2.94489
H          1.81767        3.10912       -0.64766
C          2.85944        1.27277        2.52249
C          3.07117        0.32304        3.49268
C          3.80992        0.64290        4.61784
C          4.33488        1.91881        4.77633
C          4.11953        2.85941        3.77731
C          3.38108        2.53711        2.65284
H          3.20252        3.26704        1.87914
H          4.53227        3.84775        3.88645
C          5.14924        2.26026        5.97546
H          3.98328       -0.09795        5.37949
H          2.66123       -0.66535        3.35866
H          1.34605       -0.93442        0.07564
H          1.27341       -0.38876       -2.05575
C         -0.55402        1.67453       -2.52332
C         -0.98850        2.96527       -2.33885
C         -0.84622        3.89527       -3.35042
C         -0.26856        3.53839       -4.56122
C          0.13662        2.22363       -4.74375
C         -0.00609        1.29693       -3.72681
H          0.31010        0.27681       -3.86976
H          0.56845        1.93083       -5.68552
C         -0.12481        4.53333       -5.65959
H         -1.18485        4.90683       -3.20493
H         -1.44692        3.23801       -1.40382
C         -2.33341       -0.24375       -1.39588
C         -2.49431       -1.17113       -2.39891
C         -3.74803       -1.69212       -2.66883
C         -4.85250       -1.28391       -1.93451
C         -4.67524       -0.33345       -0.93810
C         -3.42171        0.18275       -0.67360
H         -3.29514        0.94751        0.07176
H         -5.52795        0.00760       -0.37613
C         -6.20375       -1.83216       -2.23593
H         -3.87494       -2.41893       -3.45281
H         -1.63300       -1.48362       -2.96811
Cl        -2.25890        2.68417        0.57474
H          0.41854       -6.97815       -1.52716
H         -1.13624       -6.51449        0.77187
H          0.82052       -8.08613        0.56251
H         -0.78672       -4.29048        1.86735
H         -4.75635       -4.25875        0.50731
H         -2.75699       -2.94212       -0.61814
H         -3.94245       -1.75490        3.93734
H         -3.94934       -3.99450        2.87745
H          4.14423        0.81588       -4.99543
H          3.44373        2.43127       -5.00631
H          5.10410        2.19578       -4.45575
H          5.04811        3.31568        6.23215
H          4.83597        1.67791        6.84308
H          6.20593        2.05673        5.79687
H          0.78208        4.35092       -6.23793
H         -0.97508        4.48350       -6.34106
H         -0.06741        5.54938       -5.26672
H         -6.64126       -1.33019       -3.09990
H         -6.15270       -2.89950       -2.45599
H         -6.88224       -1.70053       -1.39188
