111
-148.55303826
P         -2.48095        2.18168        1.06639
P          0.03522        0.31806        0.54039
C         -1.46891        1.61076        2.45965
C         -0.34649        0.84876        2.21850
C         -3.06681        3.91593        1.34838
C         -2.27491        4.92439        0.54506
C         -1.81378        1.93316        3.75690
H         -2.70343        2.51156        3.94448
C         -1.02515        1.49837        4.80831
H         -1.29432        1.74982        5.82121
C          0.10472        0.74221        4.56192
H          0.71761        0.40252        5.38055
C          0.44309        0.41268        3.26171
H          1.31129       -0.19235        3.05113
Pd        -1.34158        1.54690       -0.84758
Cl        -2.66312        2.97511       -1.96196
Cl        -0.11046        0.88574       -2.60793
C         -4.56251        3.82775        0.99562
C         -4.10599        1.30836        0.91600
H         -2.61931        5.94379        0.73365
H         -1.21042        4.87515        0.78618
H         -2.37641        4.73780       -0.52411
H         -4.68832        4.06969       -0.06877
H         -5.13283        4.59337        1.54345
H         -4.20351        1.02843       -0.14152
C         -5.12722        2.40475        1.27417
C         -4.15034        0.08256        1.80249
H         -2.94531        4.10877        2.42186
H         -5.38370        2.31503        2.33866
H         -6.06968        2.24307        0.72935
H         -5.11314       -0.42874        1.73063
H         -3.36735       -0.62903        1.53031
H         -3.99594        0.35451        2.84833
C         -1.10817       -4.04690       -0.08007
C         -1.26056       -3.46405        1.20451
C         -0.90178       -2.13674        1.36923
C         -0.48671       -1.38000        0.30482
C         -0.45406       -1.90776       -0.95838
C         -0.79109       -3.22873       -1.19411
O         -1.23140       -5.45245       -0.24228
C         -1.76578       -4.25814        2.41918
H         -0.92656       -1.67855        2.34174
H         -0.15716       -1.26054       -1.76458
C         -0.76886       -3.75601       -2.63692
C          4.38554        0.73370       -0.71860
C          3.91074       -0.50436       -0.21459
C          2.58069       -0.59090        0.16086
C          1.76125        0.50667        0.11946
C          2.24282        1.73142       -0.26018
C          3.56195        1.88718       -0.65371
O          5.66739        0.80883       -1.32555
C          4.79375       -1.75801       -0.11497
H          2.15645       -1.53057        0.47049
H          1.56137        2.56476       -0.27071
C          4.05832        3.28421       -1.05695
C         -2.51053       -3.33110        3.40686
C         -2.76369       -5.35014        1.99263
C         -0.56867       -4.88925        3.14599
C          0.64411       -4.25925       -2.96945
C         -1.79623       -4.88533       -2.83337
C         -1.13965       -2.63237       -3.63216
C         -0.00903       -6.16105       -0.07949
H         -2.96727       -3.90944        4.20967
H         -1.83856       -2.61260        3.87377
H         -3.30290       -2.78170        2.89973
H         -2.29005       -6.09442        1.35736
H         -3.17148       -5.86893        2.85983
H         -3.59334       -4.91532        1.43617
H         -0.89487       -5.45055        4.02120
H         -0.02585       -5.56941        2.49388
H          0.12906       -4.12079        3.47815
H          0.69469       -4.63521       -3.99095
H          1.37204       -3.45443       -2.86966
H          0.94474       -5.06181       -2.29998
H         -1.55650       -5.75127       -2.22154
H         -2.79459       -4.54765       -2.55733
H         -1.82401       -5.21358       -3.87209
H         -1.25232       -3.02991       -4.64045
H         -2.08072       -2.16050       -3.35108
H         -0.37136       -1.86211       -3.67726
H         -0.11376       -6.89043        0.72358
H          0.22875       -6.69745       -0.99791
H          0.80203       -5.47166        0.15884
C          5.66186        0.53938       -2.72209
C          4.68394       -2.56091       -1.42025
C          6.26168       -1.38440        0.15926
C          4.33235       -2.65737        1.05497
C          3.80144        3.49753       -2.55667
C          3.30532        4.37989       -0.26829
C          5.55559        3.45572       -0.74312
H          3.65152       -2.85783       -1.60320
H          5.01496       -1.97427       -2.27378
H          5.29207       -3.46404       -1.37579
H          6.87467       -2.27548        0.29230
H          6.68652       -0.81313       -0.66216
H          6.34123       -0.77991        1.06216
H          3.35697       -3.10213        0.86271
H          5.03198       -3.47826        1.21081
H          4.27339       -2.08741        1.98187
H          4.12600        4.48880       -2.87190
H          4.33349        2.76308       -3.15632
H          2.73959        3.40135       -2.78238
H          3.74212        5.36052       -0.45588
H          2.25710        4.43737       -0.55780
H          3.35633        4.19029        0.80356
H          5.89045        4.46722       -0.97162
H          6.16484        2.76896       -1.32520
H          5.75090        3.26364        0.31134
H          4.64765        0.32955       -3.06447
H          6.05733        1.39942       -3.26222
H          6.30146       -0.31757       -2.93261
