87
-129.18343899
P         -1.53571       -0.27031       -0.42134
P          1.72266        0.29888        0.24649
C         -1.08762        0.97253       -1.63810
C          1.52618       -0.80563       -1.17571
C          0.01371        0.73648       -2.45079
C          0.36916        1.70331       -3.41228
C         -0.40157        2.84875       -3.52963
C         -1.49583        3.05960       -2.71596
C         -1.83679        2.11601       -1.76692
C          2.14850       -2.02189       -1.01685
C          2.04255       -2.99566       -1.99107
C          1.29439       -2.74816       -3.12084
C          0.64127       -1.54001       -3.29414
C          0.76332       -0.53939       -2.31076
Cl         0.95614       -0.27329        3.37097
Cl        -1.71032       -1.82451        2.38677
H         -2.08038        3.95929       -2.81690
H         -2.69182        2.26804       -1.12947
H          2.71449       -2.21098       -0.11671
H          2.53421       -3.94592       -1.86233
H         -0.12966        3.58595       -4.26589
H          1.19757       -3.50719       -3.87855
C         -2.46510       -4.17595       -2.54784
C         -1.65661       -4.19770       -1.41962
C         -1.39304       -2.99821       -0.77004
C         -1.92486       -1.81951       -1.23773
C         -2.73486       -1.80715       -2.34895
C         -3.00819       -2.99200       -3.00704
H         -2.66551       -5.09796       -3.06645
C         -1.04252       -5.46489       -0.93901
H         -0.76654       -2.99065        0.10556
H         -3.13672       -0.87036       -2.70225
H         -3.63684       -2.98909       -3.88234
C         -5.17034        1.11352        1.95591
C         -5.24266       -0.03270        1.18993
C         -4.14180       -0.44635        0.46438
C         -2.98101        0.29001        0.50329
C         -2.90698        1.43151        1.26713
C         -3.99993        1.85777        2.01150
H         -6.02639        1.43762        2.52283
H         -6.15376       -0.60761        1.16149
H         -4.18060       -1.34701       -0.12612
H         -1.99430        2.00075        1.28461
C         -3.91623        3.09657        2.83186
C          6.08095       -0.00622        1.53630
C          5.75514        0.18364        0.20784
C          4.42814        0.26878       -0.17177
C          3.43855        0.16449        0.77859
C          3.76414       -0.02365        2.10021
C          5.08984       -0.12044        2.50077
H          7.11339       -0.06688        1.83592
H          6.53347        0.26668       -0.53292
H          4.15839        0.41011       -1.20664
H          2.97785       -0.10058        2.82926
C          5.43719       -0.30148        3.93674
C          0.80287        4.71756       -0.29665
C          1.67916        4.09179       -1.16100
C          1.96809        2.75009       -0.99732
C          1.36950        2.04511        0.01966
C          0.52645        2.67499        0.90656
C          0.22510        4.02339        0.75714
H          0.56630        5.75957       -0.42914
H          2.13038        4.64511       -1.96821
H          2.64593        2.24512       -1.66616
H          0.13410        2.12490        1.74499
C         -0.71518        4.70386        1.68775
Pd        -0.12644       -0.55222        1.43117
C          1.55462        1.52340       -4.29497
C         -0.18599       -1.33534       -4.51607
H          2.18975        0.70681       -3.94956
H          1.24767        1.30267       -5.31805
H          2.16434        2.42786       -4.31597
H          0.44259       -1.10876       -5.37802
H         -0.76336       -2.23124       -4.74866
H         -0.89340       -0.51548       -4.38795
H         -0.93191       -5.45919        0.14634
H         -1.65568       -6.32691       -1.20536
H         -0.05337       -5.60532       -1.37721
H         -3.97179        3.98464        2.20088
H         -4.73040        3.14842        3.55601
H         -2.97822        3.13237        3.38755
H          4.63400       -0.80723        4.47468
H          6.34116       -0.90152        4.05032
H          5.60874        0.66236        4.41790
H         -0.38905        5.72330        1.89865
H         -1.71615        4.75300        1.25708
H         -0.78049        4.17440        2.63921
