45
-71.81476312
C          1.35541        1.01912        2.66479
P          1.24053        0.80434        0.85722
P         -1.35606        0.20560       -0.87199
C         -1.39709       -0.29605       -2.62542
Cl         1.54896       -2.28123        1.59391
H          0.36152        1.15919        3.08038
H         -0.40934       -0.18731       -3.06421
Cl        -0.85452       -2.91953       -0.69432
C          0.35468        2.15950        0.07020
C         -0.74834        1.89718       -0.71157
C         -1.39153        2.92659       -1.36837
C         -0.93000        4.22412       -1.23219
C          0.17546        4.48602       -0.44618
C          0.82384        3.44995        0.20312
H         -2.24888        2.70935       -1.98519
H         -1.43232        5.02971       -1.74198
H          0.53786        5.49562       -0.34358
H          1.69933        3.63631        0.80448
Pd         0.16655       -1.15227        0.24073
H         -2.09933        0.32569       -3.17325
H          1.96306        1.88838        2.89955
H         -1.70700       -1.33398       -2.70618
C         -5.45855       -0.30867        1.04343
C         -4.94018        0.95965        0.87104
C         -3.69498        1.12299        0.29164
C         -2.97632        0.02049       -0.11338
C         -3.48866       -1.24399        0.06507
C         -4.73319       -1.41289        0.64251
H         -6.42873       -0.43700        1.49505
H         -5.50403        1.82156        1.18815
H         -3.27803        2.10736        0.16031
H         -2.89744       -2.09456       -0.23128
H         -5.13236       -2.40395        0.78306
C          5.19554        0.19626       -1.30180
C          4.03884        0.46167       -2.00805
C          2.84790        0.65257       -1.33025
C          2.82479        0.58092        0.04480
C          3.97307        0.31007        0.75298
C          5.16461        0.11906        0.07695
H          6.12399        0.04547       -1.82797
H          4.06181        0.51752       -3.08394
H          1.93310        0.85572       -1.86492
H          3.93364        0.24031        1.82773
H          6.06682       -0.09427        0.62636
H          1.80375        0.13854        3.11600
