64
-97.22000486
Cl        -1.59595       -1.04328       -2.63999
Cl         1.55856       -1.38250       -2.93010
P          1.92127       -0.66174        0.26604
C          2.09895       -2.33384        1.04304
C          3.71159       -0.28832       -0.06730
P         -1.26513       -0.12133        0.45296
C          1.28482        0.58566        1.44185
C         -0.13764        0.84866        1.52186
C         -0.33749        1.96317        2.43630
C          0.96878        2.40008        2.89635
C          1.97384        1.54177        2.29441
H         -1.29911        2.37212        2.75174
H          1.16009        3.21113        3.60238
Pd         0.15638       -0.92302       -1.24672
H          3.05384        1.60538        2.44179
C         -5.03773        2.10527       -0.83423
C         -4.05044        2.78579       -0.15043
C         -2.90415        2.12199        0.24491
C         -2.74144        0.78655       -0.04759
C         -3.72955        0.10590       -0.72210
C         -4.87958        0.76403       -1.11976
H         -5.93194        2.62080       -1.14473
H         -4.17171        3.83275        0.07469
H         -2.13077        2.64676        0.77673
H         -3.59426       -0.94066       -0.94293
H         -5.64831        0.22993       -1.65373
C         -2.59071       -3.94678        2.51097
C         -2.37375       -2.80393        3.25634
C         -1.97702       -1.63667        2.62837
C         -1.79805       -1.62553        1.26459
C         -2.02089       -2.75797        0.51596
C         -2.41727       -3.92595        1.14065
H         -2.89941       -4.85653        2.99966
H         -2.51191       -2.82054        4.32496
H         -1.79891       -0.73549        3.19361
H         -1.89375       -2.71665       -0.55419
H         -2.59175       -4.81594        0.55863
C          4.06264       -0.37560       -1.53662
H          3.90138        0.72389        0.31314
C          4.44166       -1.34727        0.78211
H          4.64430       -0.94781        1.78667
C          3.60133       -2.64625        0.90378
H          5.42655       -1.56124        0.34184
C          1.62353       -2.29848        2.47929
H          1.48993       -3.03004        0.45020
H          3.93465       -3.24526        1.76347
H          3.77342       -3.27615        0.01895
H          2.20878       -1.58206        3.05923
H          0.57767       -1.99385        2.54439
H          1.72097       -3.27503        2.95944
H          5.12591       -0.19168       -1.70521
H          3.83467       -1.36969       -1.92430
H          3.50168        0.34439       -2.13386
Fe         0.86016        2.44005        0.83241
C          2.23188        3.15980       -0.48953
C          1.41860        4.23941        0.04455
C          0.03026        3.95858       -0.28032
C         -0.01325        2.70401       -1.00991
C          1.34388        2.21259       -1.13658
H          3.32128        3.09167       -0.44231
H          1.78885        5.12153        0.57218
H         -0.82454        4.59801       -0.04872
H         -0.89998        2.23329       -1.43915
H          1.63855        1.31999       -1.69073
