59
-75.80241856
Cl         1.61083        0.03207        2.31842
P          1.47378        0.04152       -0.86853
P         -1.70257       -0.17306       -0.78922
C          0.45919        0.27542       -2.39457
H          0.16285        1.32543       -2.45693
H          1.07832        0.05568       -3.26994
C         -0.75002       -0.61120       -2.30802
H         -0.45461       -1.66098       -2.23720
H         -1.40735       -0.51063       -3.17741
C          2.70485       -1.32528       -1.11148
H          2.87907       -1.32158       -2.19646
C          2.65451        1.43338       -0.51100
H          2.42261        1.77058        0.50664
C         -3.00684       -1.41944       -0.37146
H         -3.10293       -1.39794        0.72129
C         -2.79244        1.29328       -1.12604
H         -2.60035        1.58386       -2.16591
C          3.95497       -0.77707       -0.40457
H          3.90983       -1.03130        0.66210
H          4.86166       -1.26826       -0.79005
C          4.04370        0.76539       -0.55394
H          4.52255        1.00669       -1.51252
H          4.69965        1.19535        0.21772
C         -4.26045       -0.81523       -1.02354
H         -4.31142       -1.14890       -2.06952
H         -5.17000       -1.20687       -0.54225
C         -4.22312        0.73535       -0.96932
H         -4.62587        1.07002       -0.00356
H         -4.88981        1.16981       -1.72920
C          2.25611       -2.72234       -0.67858
H          2.99933       -3.45377       -1.02547
H          1.33567       -2.97663       -1.21998
C          2.50435        2.58967       -1.49348
H          2.71191        2.22092       -2.50669
H          1.45808        2.91833       -1.51648
C         -2.66997       -2.83140       -0.83296
H         -3.56133       -3.46630       -0.73316
H         -2.45017       -2.81241       -1.90807
C         -2.50382        2.46150       -0.18750
H         -3.31739        3.19554       -0.27277
H         -2.54945        2.09878        0.84793
C          2.04308       -2.90319        0.81664
H          1.33512       -2.17687        1.21264
H          2.97164       -2.78276        1.37624
H          1.65471       -3.89615        1.05545
C          3.40603        3.77011       -1.16351
H          3.19459        4.15900       -0.16560
H          3.27954        4.59307       -1.87072
H          4.45912        3.48401       -1.17979
C         -1.51100       -3.43593       -0.05785
H         -0.62564       -2.80434       -0.12574
H         -1.24057       -4.42864       -0.42470
H         -1.75111       -3.52956        1.00301
C         -1.17073        3.14144       -0.45052
H         -0.34108        2.44868       -0.31413
H         -1.11418        3.51866       -1.47335
H         -1.00112        3.98564        0.22173
Cl        -1.68544        0.09133        2.42162
Pd        -0.08841        0.04026        0.85164
