87
-129.18210093
P         -1.55721       -0.28117       -0.42468
P          1.73774        0.30186        0.25695
C         -1.09702        0.96710       -1.63076
C          1.53170       -0.80478       -1.16240
C          0.01288        0.73648       -2.43349
C          0.37513        1.70733       -3.38822
C         -0.39528        2.85282       -3.50704
C         -1.49664        3.05933       -2.70189
C         -1.84588        2.11062       -1.76094
C          2.15229       -2.02211       -1.00446
C          2.03994       -2.99723       -1.97665
C          1.28791       -2.74966       -3.10382
C          0.63625       -1.54059       -3.27596
C          0.76300       -0.53939       -2.29390
Cl         0.95447       -0.20677        3.34598
Cl        -1.66384       -1.87414        2.36675
H         -2.08075        3.95922       -2.80362
H         -2.70738        2.25850       -1.13121
H          2.72180       -2.21104       -0.10652
H          2.53003       -3.94840       -1.84861
H         -0.11790        3.59324       -4.23801
H          1.18708       -3.50928       -3.86042
C         -2.47881       -4.18410       -2.55805
C         -1.65048       -4.20226       -1.44421
C         -1.40115       -3.00541       -0.78435
C         -1.94100       -1.82813       -1.24636
C         -2.75590       -1.81648       -2.35394
C         -3.03049       -3.00166       -3.01098
H         -2.68979       -5.10797       -3.06910
C         -1.06680       -5.47492       -0.94072
H         -0.78185       -2.99866        0.09639
H         -3.16466       -0.88081       -2.70226
H         -3.66950       -3.00065       -3.87875
C         -5.18152        1.09753        1.96907
C         -5.25481       -0.05211        1.20819
C         -4.15724       -0.46517        0.47727
C         -2.99889        0.27542        0.50619
C         -2.92340        1.41996        1.26544
C         -4.01325        1.84590        2.01451
H         -6.03518        1.42117        2.53984
H         -6.16425       -0.62998        1.18769
H         -4.19656       -1.36798       -0.10996
H         -2.01179        1.99136        1.27621
C         -3.92783        3.08847        2.82899
C          6.09478       -0.02279        1.54610
C          5.76928        0.15497        0.21589
C          4.44269        0.24685       -0.16362
C          3.45310        0.16104        0.78862
C          3.77842       -0.01490        2.11203
C          5.10357       -0.11807        2.51264
H          7.12702       -0.08852        1.84534
H          6.54759        0.22331       -0.52639
H          4.17324        0.37901       -1.19978
H          2.99237       -0.07675        2.84271
C          5.44927       -0.28501        3.95071
C          0.81839        4.71796       -0.31101
C          1.70718        4.09071       -1.16147
C          1.99687        2.75020       -0.98908
C          1.38724        2.04789        0.02316
C          0.53161        2.67967        0.89661
C          0.22873        4.02657        0.73801
H          0.58061        5.75870       -0.45105
H          2.16722        4.64186       -1.96519
H          2.68385        2.24403       -1.64761
H          0.12910        2.13240        1.73195
C         -0.72730        4.70690        1.65256
Pd        -0.13547       -0.53296        1.41750
C          1.56513        1.52898       -4.26507
C         -0.19271       -1.33446       -4.49647
H          2.20320        0.71784       -3.91229
H          1.26345        1.30036       -5.28798
H          2.16997        2.43663       -4.28910
H          0.43515       -1.11174       -5.35997
H         -0.77424       -2.22833       -4.72648
H         -0.89634       -0.51136       -4.36835
H         -0.95603       -6.20408       -1.74455
H         -0.07961       -5.30755       -0.50723
H         -1.70242       -5.91416       -0.17070
H         -3.97914        3.97353        2.19342
H         -4.74350        3.14650        3.55097
H         -2.99083        3.12426        3.38643
H          5.58148        0.68494        4.43201
H          4.66223       -0.82025        4.48399
H          6.37443       -0.85051        4.07068
H         -1.72432        4.74235        1.21146
H         -0.79744        4.18558        2.60818
H         -0.41292        5.73127        1.85722
