105
-153.06708546
Cl        -0.03235        1.91253        3.07501
Pd        -0.46997        1.27506        0.95457
P         -1.12154        0.48983       -1.16381
N         -0.74903       -1.03003       -1.97200
C          0.18353       -2.00804       -1.62748
C          0.32726       -2.48607       -0.30039
C          1.29677       -3.47251       -0.02438
C          1.42334       -3.99786        1.38602
C          2.25359       -5.28403        1.51830
C          3.52412       -5.20529        0.66730
C          3.17020       -5.00994       -0.81428
C          2.10046       -3.97376       -1.05237
C          1.90501       -3.52353       -2.35194
C          0.96302       -2.57062       -2.63733
H          0.83447       -2.22093       -3.64683
H          2.51610       -3.92796       -3.14111
H          4.06532       -4.73132       -1.38516
H          4.13860       -4.36304        1.00953
H          2.50164       -5.48310        2.57046
H          1.86903       -3.21178        2.00622
C         -0.66779       -2.12947        0.73943
C         -0.23878       -1.54671        1.96325
C         -1.16861       -1.40977        2.99827
C         -2.47026       -1.80638        2.83566
C         -2.91130       -2.36737        1.64340
C         -4.35060       -2.81689        1.56158
C         -4.81734       -3.19248        0.14607
C         -3.74203       -4.00118       -0.58384
C         -2.44045       -3.19417       -0.69663
C         -2.00904       -2.53305        0.59025
H         -1.62932       -3.83983       -1.05573
H         -4.09585       -4.31568       -1.57593
H         -5.03100       -2.28034       -0.42453
H         -4.99085       -2.02818        1.97617
H         -3.17160       -1.68590        3.64397
H         -0.85285       -0.95741        3.92196
N          1.06004       -1.04758        2.14292
P          1.61197        0.18359        1.00799
C          2.61833       -0.35415       -0.36182
C          2.39559        0.20454       -1.59545
C          3.20786       -0.14090       -2.65974
C          4.24946       -1.04315       -2.48698
C          4.47729       -1.56921       -1.22173
C          3.66266       -1.22284       -0.15858
H          3.83436       -1.62344        0.82788
H          5.29473       -2.25413       -1.07473
C          5.12783       -1.41430       -3.63011
H          3.03364        0.28612       -3.63241
H          1.58180        0.89859       -1.71903
C          2.53317        1.49646        1.81523
C          3.24476        1.24165        2.96274
C          3.95354        2.26226        3.57042
C          3.96144        3.53946        3.02543
C          3.23783        3.77457        1.86415
C          2.53044        2.75299        1.25679
H          1.97046        2.93176        0.35181
H          3.22795        4.76425        1.44045
C          4.69653        4.64755        3.69567
H          4.50350        2.07245        4.47631
H          3.24834        0.24698        3.37802
H          1.22104       -0.62553        3.04827
H         -1.02216       -0.93951       -2.94247
C         -0.61865        1.85451       -2.22470
C         -0.85292        3.15005       -1.83063
C         -0.45025        4.20250       -2.62995
C          0.18565        3.96536       -3.84057
C          0.41655        2.65176       -4.22507
C          0.00978        1.60212       -3.42208
H          0.20052        0.58491       -3.71990
H          0.92132        2.45597       -5.15572
C          0.64884        5.09809       -4.68904
H         -0.62625        5.21722       -2.31606
H         -1.35395        3.33170       -0.89466
C         -2.91611        0.53786       -1.09144
C         -3.60172        0.81257       -2.25095
C         -4.98494        0.84684       -2.24226
C         -5.68987        0.60404       -1.07137
C         -4.97923        0.33785        0.09031
C         -3.59782        0.29056        0.07484
H         -3.04468        0.07658        0.97491
H         -5.51525        0.17199        1.00897
C         -7.17721        0.66817       -1.05024
H         -5.52535        1.06840       -3.14665
H         -3.05145        1.00344       -3.15910
Cl        -2.25904        2.65134        1.00293
H          2.83438       -5.96198       -1.24242
H          1.65129       -6.14089        1.19122
H          4.14556       -6.10098        0.80839
H          0.41728       -4.15823        1.79375
H         -3.54780       -4.92926       -0.03170
H         -2.55919       -2.41682       -1.46003
H         -4.48098       -3.67656        2.22980
H         -5.76626       -3.74621        0.18013
H          5.50451       -2.43244       -3.52168
H          4.58605       -1.36179       -4.57557
H          5.98482       -0.74252       -3.69466
H          5.53465        4.26788        4.28170
H          5.09607        5.35253        2.96528
H          4.03708        5.19726        4.36860
H          1.65924        5.40157       -4.41160
H          0.65806        4.82192       -5.74437
H         -0.00490        5.96456       -4.57981
H         -7.59000       -0.02721       -0.31791
H         -7.51738        1.67161       -0.79099
H         -7.59702        0.41096       -2.02371
