111
-148.55272728
P         -2.57065        2.07173        0.48182
P          0.07626        0.33187        0.59666
C         -1.82535        1.66972        2.08427
C         -0.65983        0.93579        2.12671
C         -3.14441        3.83070        0.42277
C         -2.39827        4.61658       -0.63309
C         -2.41292        2.09618        3.25796
H         -3.32079        2.67571        3.21900
C         -1.83326        1.77688        4.47383
H         -2.29225        2.10795        5.39106
C         -0.66832        1.03470        4.51329
H         -0.21844        0.78423        5.45988
C         -0.08002        0.61141        3.33493
H          0.82602        0.02612        3.34693
Pd        -1.05499        1.39073       -1.12173
Cl        -2.42903        2.12376       -2.73308
Cl         0.57592        0.70222       -2.50780
C         -4.66153        3.70373        0.16227
C         -4.15666        1.19235        0.12144
H         -2.71010        5.66361       -0.64891
H         -1.31929        4.58701       -0.46291
H         -2.58666        4.20381       -1.62503
H         -4.98756        4.51893       -0.49971
H         -5.21611        3.84860        1.10096
H         -3.93473        0.43225       -0.64028
C         -5.03715        2.32319       -0.44844
C         -4.72419        0.55158        1.36941
H         -2.94899        4.25409        1.41736
H         -6.09744        2.09285       -0.26732
H         -4.92316        2.36671       -1.54182
H         -4.95413        1.30937        2.12036
H         -5.64815        0.00832        1.15717
H         -4.01372       -0.14668        1.81578
C         -1.34794       -3.88641       -0.35610
C         -0.23446       -3.34456       -1.04758
C          0.16481       -2.05574       -0.73655
C         -0.43788       -1.35161        0.27153
C         -1.45007       -1.90669        1.00966
C         -1.90438       -3.18856        0.74662
O         -1.93308       -5.10586       -0.78977
C          0.51670       -4.10508       -2.15116
H          0.93636       -1.56562       -1.30462
H         -1.88771       -1.31719        1.79559
C         -3.00724       -3.79248        1.63021
C          4.59930        0.77977        0.35277
C          4.04068       -0.36743        0.97267
C          2.66070       -0.48093        1.02143
C          1.85350        0.52383        0.55516
C          2.38885        1.68365        0.06011
C          3.76013        1.85803       -0.02698
O          5.99243        0.83202        0.08068
C          4.90748       -1.49245        1.56032
H          2.19354       -1.36834        1.41269
H          1.71362        2.44863       -0.28331
C          4.30815        3.18437       -0.57607
C         -0.10527       -3.76315       -3.51357
C          2.00720       -3.69586       -2.17098
C          0.47688       -5.62520       -1.91137
C         -4.38108       -3.48108        1.01752
C         -2.82521       -5.31448        1.77421
C         -2.95641       -3.19568        3.05521
C         -2.93968       -4.94404       -1.78148
H          0.41160       -4.28181       -4.32050
H         -1.15501       -4.04465       -3.54979
H         -0.04380       -2.69225       -3.70619
H          2.45064       -3.81475       -1.18322
H          2.57011       -4.31652       -2.86770
H          2.14041       -2.66181       -2.48493
H          1.06477       -6.15546       -2.66018
H          0.87998       -5.86878       -0.92892
H         -0.53847       -6.00975       -1.95860
H         -4.52140       -2.40632        0.91048
H         -4.48348       -3.92663        0.03134
H         -5.18476       -3.86632        1.64454
H         -3.56999       -5.73613        2.44873
H         -2.92696       -5.81815        0.81597
H         -1.83753       -5.54710        2.17088
H         -1.95748       -3.29090        3.48010
H         -3.23355       -2.14282        3.06279
H         -3.65149       -3.71321        3.71599
H         -2.62759       -5.42865       -2.70625
H         -3.86164       -5.41780       -1.44454
H         -3.12107       -3.88509       -1.96999
C          6.35510        0.30330       -1.18880
C          6.22533       -0.93592        2.12941
C          4.17423       -2.19361        2.72639
C          5.19997       -2.53466        0.47070
C          4.42837        3.08569       -2.10460
C          3.35610        4.35270       -0.23212
C          5.67483        3.52384        0.04579
H          6.02678       -0.16563        2.87386
H          6.81098       -1.72320        2.60343
H          6.83967       -0.49445        1.34863
H          4.83311       -2.90291        3.22679
H          3.84033       -1.46731        3.46699
H          3.30736       -2.75374        2.37886
H          5.80587       -3.35086        0.86334
H          4.27313       -2.95779        0.08584
H          5.73421       -2.09243       -0.36646
H          3.45817        2.87361       -2.55344
H          4.80088        4.01778       -2.52862
H          5.10737        2.28817       -2.39626
H          2.41223        4.27613       -0.76980
H          3.14259        4.37704        0.83617
H          3.80234        5.30844       -0.50605
H          6.03118        4.49478       -0.29740
H          6.42712        2.78564       -0.21989
H          5.60503        3.55277        1.13264
H          7.07135       -0.50732       -1.05563
H          5.47347       -0.07077       -1.71095
H          6.82970        1.08036       -1.78767
