171
-217.83897472
P         -1.70490        0.62386        0.20049
P          1.47240       -0.23334       -0.18502
C         -0.87404        1.81828       -0.87208
C          0.71189       -0.82454       -1.70924
C         -0.16092        1.48036       -2.01622
C          0.52195        2.49557       -2.71257
C          0.44556        3.80118       -2.25786
C         -0.26840        4.11829       -1.12257
C         -0.91948        3.11843       -0.42642
C          0.88879       -2.12122       -2.12663
C          0.29692       -2.56048       -3.29464
C         -0.48866       -1.69864       -4.03126
C         -0.69239       -0.39102       -3.62197
C         -0.05406        0.06479       -2.45240
Cl         1.95461        0.91055        2.85297
Cl        -1.15299        0.36537        3.47956
C         -1.56136        0.51228       -4.42544
C          1.34468        2.19782       -3.91734
H         -0.31128        5.13713       -0.77378
H         -1.46273        3.34744        0.47863
H          1.48575       -2.79512       -1.53643
H          0.44434       -3.57450       -3.62835
H          0.96685        4.57253       -2.79941
H         -0.95026       -2.03919       -4.94242
C         -2.78539       -3.47460       -1.40388
C         -3.44660       -2.35445       -1.88845
C         -3.06684       -1.11444       -1.39060
C         -2.07872       -1.01441       -0.44201
C         -1.44912       -2.13793        0.04296
C         -1.78498       -3.39588       -0.44355
H         -3.07079       -4.44157       -1.77512
H         -3.54890       -0.21445       -1.73005
H         -0.68880       -2.02754        0.79477
C         -5.66938        2.52223        1.31675
C         -4.94950        1.87445        2.31331
C         -3.73196        1.30377        1.96814
C         -3.26437        1.37806        0.68129
C         -3.98939        2.02173       -0.29154
C         -5.20965        2.61300        0.00815
H         -6.60954        2.97130        1.57632
H         -3.12099        0.81717        2.70523
H         -3.59115        2.07620       -1.29145
C          3.86602       -3.62627        1.70521
C          2.87711       -3.02260        2.47017
C          2.13226       -2.00760        1.88548
C          2.38101       -1.59352        0.59782
C          3.37856       -2.19387       -0.13113
C          4.13059       -3.23326        0.39949
H          4.45113       -4.40924        2.14958
H          1.36173       -1.52398        2.45456
H          3.57686       -1.85172       -1.13163
C          4.45885        2.99286       -1.28506
C          3.59510        3.22299       -0.22205
C          2.69792        2.21843        0.11364
C          2.66079        1.04664       -0.59876
C          3.50405        0.84731       -1.66465
C          4.42979        1.81886       -2.02713
H          5.18355        3.74613       -1.53292
H          2.02418        2.34133        0.94170
H          3.41871       -0.06489       -2.22835
Pd         0.11983        0.44366        1.63936
C         -5.22519       -1.16213       -3.26227
C         -4.57611       -2.51605       -2.91568
C         -5.66478       -3.43729       -2.33350
C         -4.00936       -3.13461       -4.20551
H         -4.49919       -0.47698       -3.69837
H         -6.03068       -1.29189       -3.98493
H         -5.65024       -0.69637       -2.37354
H         -6.49655       -3.54595       -3.02934
H         -5.27409       -4.43252       -2.12527
H         -6.05553       -3.02895       -1.40162
H         -4.79379       -3.27286       -4.94938
H         -3.24666       -2.48899       -4.63806
H         -3.55577       -4.10611       -4.01250
C          0.03361       -4.39184        1.03121
C         -1.13583       -4.68689        0.07691
C         -0.58920       -5.51279       -1.10327
C         -2.19429       -5.50651        0.83627
H          0.79975       -3.79948        0.53398
H         -0.30486       -3.85231        1.91501
H          0.50004       -5.31803        1.36541
H          0.15816       -4.94593       -1.65631
H         -0.11786       -6.42976       -0.74990
H         -1.38002       -5.79378       -1.79721
H         -1.76548       -6.42664        1.23290
H         -2.59719       -4.93382        1.67145
H         -3.02461       -5.77698        0.18474
C         -4.55429        1.05321        4.69026
C         -5.50078        1.82024        3.74551
C         -6.86526        1.10681        3.73919
C         -5.66550        3.25438        4.28092
H         -4.96057        1.01827        5.70093
H         -4.41355        0.02577        4.35544
H         -3.57813        1.53462        4.74439
H         -7.27219        1.03438        4.74765
H         -7.58956        1.64125        3.12567
H         -6.76915        0.09707        3.34047
H         -6.03751        3.24811        5.30530
H         -4.71075        3.77987        4.27156
H         -6.36771        3.82560        3.67485
C         -6.29035        2.36456       -2.24175
C         -5.97942        3.34791       -1.09825
C         -5.11300        4.50423       -1.63188
C         -7.30824        3.92995       -0.57954
H         -6.85516        2.85413       -3.03490
H         -5.37628        1.96755       -2.68168
H         -6.88056        1.52445       -1.87639
H         -4.86322        5.19933       -0.83052
H         -4.17981        4.13634       -2.05717
H         -5.63793        5.05890       -2.40939
H         -7.13565        4.65095        0.21930
H         -7.84243        4.44491       -1.37796
H         -7.95999        3.14261       -0.20121
C          2.39379       -4.94273        4.02582
C          2.67916       -3.43240        3.93765
C          1.50243       -2.67606        4.58764
C          3.96140       -3.10139        4.72277
H          2.25918       -5.25251        5.06204
H          1.48591       -5.19738        3.48107
H          3.21180       -5.52828        3.60832
H          1.67843       -1.60052        4.58902
H          0.56878       -2.87175        4.06121
H          1.36793       -2.98698        5.62340
H          3.85301       -3.36047        5.77579
H          4.81730       -3.64887        4.32963
H          4.18643       -2.03699        4.65775
C          4.57717       -4.44353       -1.74948
C          5.21862       -3.88530       -0.46463
C          5.91725       -5.04246        0.27441
C          6.27535       -2.82638       -0.83019
H          4.12226       -3.65141       -2.34317
H          5.32064       -4.94005       -2.37274
H          3.79982       -5.16833       -1.50785
H          6.41329       -4.68870        1.17802
H          5.20327       -5.81783        0.55176
H          6.67596       -5.50303       -0.35826
H          5.83410       -2.00673       -1.39565
H          6.72609       -2.40615        0.06865
H          7.07025       -3.26025       -1.43650
C          3.42991        5.71800       -0.41836
C          3.66086        4.54591        0.55304
C          5.04596        4.67842        1.21093
C          2.58602        4.61045        1.65673
H          2.46007        5.62702       -0.90636
H          3.45394        6.67172        0.10850
H          4.19351        5.74694       -1.19463
H          5.83927        4.68660        0.46435
H          5.11844        5.60145        1.78584
H          5.23100        3.84371        1.88679
H          2.63375        5.56044        2.18860
H          1.58529        4.51768        1.23541
H          2.72692        3.81601        2.38929
C          5.48565        2.81391       -4.09282
C          5.44615        1.59085       -3.15584
C          5.08587        0.35180       -3.99998
C          6.83570        1.37679       -2.53045
H          4.50305        3.00782       -4.52080
H          5.80714        3.71199       -3.56754
H          6.18142        2.64906       -4.91543
H          4.08569        0.44404       -4.42278
H          5.78590        0.23019       -4.82646
H          5.12563       -0.55909       -3.40355
H          6.82838        0.51704       -1.86069
H          7.58825        1.20106       -3.29894
H          7.14210        2.24771       -1.95166
H         -0.99602        0.98348       -5.23036
H          0.85229        2.55210       -4.82401
H         -1.99035        1.30117       -3.80548
H         -2.38818       -0.03762       -4.87698
H          1.52668        1.12801       -4.02575
H          2.31520        2.69005       -3.84911
