111
-148.55772238
P         -2.64434        1.86897        0.68495
P          0.17987        0.46945        0.48298
C         -1.69481        1.54743        2.19494
C         -0.44054        0.98467        2.09673
C         -3.58299        3.46064        0.77724
C         -2.91836        4.54114       -0.04765
C         -2.21734        1.85288        3.43531
H         -3.20597        2.27560        3.50789
C         -1.47504        1.59948        4.57601
H         -1.88185        1.83762        5.54526
C         -0.21578        1.03950        4.47450
H          0.36045        0.83969        5.36288
C          0.30132        0.72624        3.23038
H          1.27491        0.27208        3.13401
Pd        -1.15081        1.60317       -1.04762
Cl        -2.72422        2.27048       -2.49713
Cl         0.45207        1.24021       -2.58022
C         -4.98784        3.05522        0.29344
C         -4.03317        0.67970        0.39588
H         -1.89865        4.73179        0.29546
H         -2.86093        4.24756       -1.09686
H         -3.47470        5.48011        0.00149
H         -5.05205        3.23307       -0.78897
H         -5.75234        3.70519        0.74576
H         -3.94647        0.36254       -0.65214
C         -5.28467        1.55699        0.58852
C         -3.95172       -0.51137        1.32571
H         -3.61172        3.74651        1.83632
H         -5.63444        1.45076        1.62464
H         -6.10989        1.18925       -0.04011
H         -4.79044       -1.19486        1.17454
H         -3.02847       -1.07188        1.16921
H         -3.96744       -0.19062        2.36891
C         -1.41214       -3.71501       -0.33574
C         -1.01175       -2.88719       -1.41551
C         -0.52401       -1.62595       -1.12476
C         -0.37590       -1.20397        0.16924
C         -0.65189       -2.04159        1.21743
C         -1.13174       -3.32194        0.99851
O         -2.13297       -4.91220       -0.58855
C         -1.15035       -3.30963       -2.88550
H         -0.26748       -0.93660       -1.91005
H         -0.50704       -1.67212        2.21746
C         -1.37573       -4.24170        2.20462
C          4.70996        0.63827        0.08393
C          4.08690       -0.50972        0.63694
C          2.70503       -0.52491        0.72726
C          1.96038        0.56709        0.36512
C          2.56361        1.71895       -0.06538
C          3.94134        1.79949       -0.18695
O          6.09446        0.61137       -0.23213
C          4.87788       -1.74214        1.10293
H          2.18493       -1.40319        1.06947
H          1.93607        2.55265       -0.32945
C          4.57267        3.12035       -0.65398
C         -2.52637       -2.86991       -3.40872
C         -0.05738       -2.63964       -3.74957
C         -0.98052       -4.83102       -3.04555
C         -2.79424       -4.00650        2.74571
C         -1.19188       -5.72140        1.82176
C         -0.36056       -3.93945        3.33063
C         -3.54458       -4.73996       -0.61124
H         -3.33012       -3.33434       -2.84232
H         -2.64287       -1.78955       -3.32416
H         -2.65120       -3.14208       -4.45639
H         -0.20578       -1.56353       -3.82558
H          0.93239       -2.82049       -3.33125
H         -0.06969       -3.03575       -4.76464
H         -1.76618       -5.37472       -2.52695
H         -1.01682       -5.12115       -4.09529
H         -0.02415       -5.15523       -2.63660
H         -2.99707       -4.64962        3.60166
H         -2.91862       -2.97207        3.06506
H         -3.54507       -4.21089        1.98603
H         -1.92813       -6.03565        1.08630
H         -0.20282       -5.88731        1.39603
H         -1.29949       -6.36792        2.69236
H         -0.44541       -4.67052        4.13433
H          0.66047       -3.97567        2.95149
H         -0.52737       -2.95833        3.77271
H         -4.00203       -5.36212        0.15781
H         -3.80363       -3.69509       -0.43509
H         -3.93535       -5.05241       -1.57950
C          6.37944        0.15072       -1.54717
C          4.13315       -2.46704        2.24773
C          5.03610       -2.71907       -0.07208
C          6.25926       -1.34027        1.65072
C          5.97511        3.31272       -0.04885
C          4.64984        3.12825       -2.18839
C          3.71840        4.32523       -0.19833
H          3.88808       -1.77319        3.05148
H          3.21057       -2.92955        1.89997
H          4.74949       -3.26153        2.66789
H          5.57750       -2.26100       -0.89617
H          5.58080       -3.61212        0.23325
H          4.06158       -3.02980       -0.44820
H          6.87753       -0.89068        0.87782
H          6.15576       -0.61645        2.45840
H          6.79454       -2.20682        2.03809
H          5.93354        3.26383        1.03874
H          6.66436        2.54479       -0.39061
H          6.39379        4.27889       -0.32939
H          3.65666        3.01968       -2.62369
H          5.07921        4.06080       -2.55351
H          5.26241        2.30899       -2.55676
H          3.53336        4.28544        0.87480
H          2.75876        4.35662       -0.71202
H          4.22724        5.26412       -0.41557
H          6.90620        0.92748       -2.10120
H          7.02430       -0.72639       -1.49584
H          5.45629       -0.10558       -2.06859
