111
-148.55582464
P         -2.44576        2.18551        1.16111
P          0.05527        0.34267        0.55050
C         -1.38755        1.62282        2.52165
C         -0.27737        0.85517        2.24489
C         -2.99771        3.93363        1.41792
C         -2.27710        4.88508        0.48782
C         -1.68990        1.94904        3.82827
H         -2.56883        2.53520        4.04139
C         -0.87146        1.50927        4.85457
H         -1.10681        1.76300        5.87528
C          0.24454        0.74448        4.57310
H          0.88027        0.40067        5.37235
C          0.54096        0.41327        3.26305
H          1.39961       -0.19529        3.02563
Pd        -1.35379        1.59036       -0.78727
Cl        -2.95024        2.72312       -1.88442
Cl        -0.14205        1.01897       -2.59083
C         -4.52037        3.84811        1.20360
C         -4.08398        1.32833        1.10251
H         -2.60177        5.91676        0.64199
H         -1.19549        4.84304        0.63724
H         -2.47287        4.63146       -0.55481
H         -4.74176        4.08441        0.15368
H         -5.03573        4.61972        1.79556
H         -4.25141        1.06545        0.04936
C         -5.06646        2.43057        1.53984
C         -4.08673        0.08991        1.97213
H         -2.77382        4.17713        2.46442
H         -5.23124        2.34847        2.62302
H         -6.05260        2.26970        1.07827
H         -3.32999       -0.62463        1.64049
H         -3.86451        0.34387        3.01022
H         -5.05768       -0.41052        1.95292
C         -1.08688       -4.00698       -0.14539
C         -1.25560       -3.44697        1.14767
C         -0.90114       -2.12197        1.34005
C         -0.47930       -1.34653        0.29206
C         -0.43431       -1.85043       -0.98058
C         -0.76238       -3.16875       -1.24236
O         -1.19850       -5.41029       -0.33322
C         -1.77007       -4.26418        2.34306
H         -0.93068       -1.68175        2.32086
H         -0.13244       -1.18666       -1.77198
C         -0.71528       -3.67254       -2.69276
C          4.37457        0.67179       -0.83683
C          3.91151       -0.52891       -0.23556
C          2.59134       -0.58473        0.17897
C          1.77340        0.51134        0.08896
C          2.25332        1.71121       -0.36539
C          3.56201        1.83670       -0.80248
O          5.60400        0.68235       -1.54438
C          4.78178       -1.77776       -0.01616
H          2.17721       -1.50434        0.55773
H          1.58045        2.55128       -0.40481
C          4.04061        3.23100       -1.24000
C         -2.74914       -5.36138        1.88696
C         -0.57674       -4.89177        3.07903
C         -2.54073       -3.35995        3.33173
C          0.70549       -4.16328       -3.01122
C         -1.73345       -4.80372       -2.92286
C         -1.07617       -2.53475       -3.67550
C          0.02596       -6.11355       -0.16275
H         -2.25764       -6.09261        1.25019
H         -3.16511       -5.89534        2.74098
H         -3.57449       -4.92846        1.32268
H         -0.01519       -5.55488        2.42515
H          0.10598       -4.12007        3.43411
H         -0.90961       -5.47061        3.94020
H         -2.99706       -3.95420        4.12307
H         -1.88640       -2.63526        3.81374
H         -3.33648       -2.81890        2.82109
H          1.42800       -3.35702       -2.88606
H          0.99932       -4.97594       -2.35098
H          0.77419       -4.52145       -4.03803
H         -1.49895       -5.67769       -2.32045
H         -2.73782       -4.47523       -2.65779
H         -1.74287       -5.11614       -3.96678
H         -1.17161       -2.91657       -4.69161
H         -2.02351       -2.07147       -3.40133
H         -0.31082       -1.76051       -3.69654
H         -0.08343       -6.85102        0.63226
H          0.27726       -6.63984       -1.08344
H          0.83027       -5.42186        0.09132
C          5.45454        0.31688       -2.90645
C          4.59421       -2.28250        1.43176
C          4.34498       -2.88235       -0.99361
C          6.28159       -1.48903       -0.20057
C          5.57242        3.31627       -1.35555
C          3.40105        3.58610       -2.59294
C          3.60916        4.27645       -0.18784
H          4.82584       -1.49333        2.14654
H          3.57390       -2.61482        1.61610
H          5.25247       -3.12624        1.63739
H          4.93525       -3.78672       -0.84839
H          3.29634       -3.13995       -0.84747
H          4.46707       -2.56420       -2.02723
H          6.59395       -0.66002        0.43351
H          6.88393       -2.36004        0.05655
H          6.50926       -1.22479       -1.23038
H          5.94405        2.67795       -2.15353
H          5.89396        4.33471       -1.57223
H          6.04605        2.99994       -0.42687
H          3.70013        4.58281       -2.91607
H          3.69737        2.87984       -3.36587
H          2.31366        3.56624       -2.52695
H          4.00116        5.26228       -0.43676
H          3.98322        4.00535        0.79901
H          2.52593        4.36546       -0.12524
H          4.78411        1.01227       -3.40856
H          6.42924        0.33970       -3.39425
H          5.03731       -0.68599       -2.98128
