111
-148.55405278
P         -2.51706        2.11837        0.91610
P          0.09247        0.34469        0.54408
C         -1.46770        1.74093        2.34596
C         -0.31705        1.00275        2.17137
C         -3.20551        3.83396        1.00337
C         -2.51926        4.75556        0.01887
C         -1.81958        2.17801        3.60697
H         -2.73068        2.73753        3.74224
C         -1.00921        1.88202        4.68956
H         -1.28303        2.22335        5.67453
C          0.14795        1.14856        4.50996
H          0.77782        0.91707        5.35307
C          0.49330        0.70381        3.24629
H          1.38557        0.11781        3.08940
Pd        -1.30951        1.44317       -0.92964
Cl        -2.91045        2.35829       -2.20467
Cl         0.08200        0.84327       -2.59064
C         -4.70744        3.61370        0.74292
C         -4.08334        1.13474        0.87712
H         -1.44484        4.81105        0.20988
H         -2.65126        4.39870       -1.00342
H         -2.92633        5.76815        0.06912
H         -4.90110        3.74366       -0.33079
H         -5.30279        4.39021        1.24693
H         -4.18732        0.76968       -0.15351
C         -5.16172        2.19146        1.18067
C         -4.03165       -0.02047        1.85350
H         -3.04411        4.18168        2.03164
H         -5.36653        2.18809        2.26012
H         -6.11265        1.91726        0.69905
H         -3.86706        0.33882        2.87103
H         -4.96371       -0.59034        1.84883
H         -3.21517       -0.70454        1.61156
C         -1.15997       -4.01286        0.11406
C         -1.18418       -3.40768        1.39739
C         -0.78688       -2.08541        1.50773
C         -0.45513       -1.35469        0.39731
C         -0.54545       -1.90233       -0.85469
C         -0.92714       -3.21899       -1.03758
O         -1.32869       -5.41733       -0.01280
C         -1.59842       -4.17382        2.66348
H         -0.72000       -1.60900        2.46960
H         -0.30082       -1.27573       -1.69465
C         -1.04581       -3.76516       -2.46847
C          4.44367        0.82089       -0.70363
C          3.82785       -0.45520       -0.75967
C          2.50473       -0.55954       -0.36755
C          1.82180        0.52126        0.12502
C          2.44065        1.73435        0.27408
C          3.76617        1.90738       -0.09187
O          5.72000        1.01913       -1.29432
C          4.54703       -1.70782       -1.28402
H          1.97884       -1.49283       -0.46333
H          1.86440        2.55319        0.66964
C          4.43305        3.27212        0.14138
C         -0.35915       -4.83456        3.28562
C         -2.22151       -3.21557        3.70410
C         -2.66279       -5.23901        2.34279
C          0.32095       -4.30203       -2.92040
C         -2.10933       -4.87453       -2.55455
C         -1.48286       -2.64605       -3.44203
C         -0.11231       -6.15212        0.04353
H         -0.62033       -5.37685        4.19402
H          0.10073       -5.53771        2.59534
H          0.38887       -4.08495        3.54285
H         -3.04059       -2.64660        3.26563
H         -2.61933       -3.77237        4.55222
H         -1.48814       -2.51398        4.09872
H         -3.00544       -5.73638        3.24981
H         -3.52622       -4.78466        1.85793
H         -2.27054       -6.00374        1.67696
H          1.07054       -3.51137       -2.89988
H          0.66599       -5.10156       -2.26898
H          0.27070       -4.69255       -3.93643
H         -1.83339       -5.73696       -1.95317
H         -3.07174       -4.51151       -2.19543
H         -2.23708       -5.21620       -3.58139
H         -0.70582       -1.89386       -3.56892
H         -1.69637       -3.05372       -4.42974
H         -2.38384       -2.14954       -3.08275
H         -0.15963       -6.87410        0.85864
H          0.02913       -6.69942       -0.88824
H          0.73197       -5.47975        0.20161
C          5.66994        1.40841       -2.66132
C          4.32696       -1.81916       -2.80047
C          6.05214       -1.65859       -0.96559
C          3.98561       -2.98248       -0.61192
C          3.82645        3.97052        1.37978
C          5.94087        3.11596        0.41058
C          4.20330        4.16583       -1.08686
H          3.26348       -1.87563       -3.03164
H          4.73190       -0.95561       -3.32233
H          4.80809       -2.71109       -3.20094
H          6.55029       -2.57381       -1.28448
H          6.53790       -0.82714       -1.46997
H          6.21385       -1.53962        0.10523
H          4.57756       -3.85592       -0.88451
H          4.00647       -2.88975        0.47359
H          2.96058       -3.18446       -0.91927
H          2.79197        4.26556        1.21073
H          3.85891        3.31451        2.24931
H          4.38105        4.87653        1.62312
H          6.39969        4.07742        0.63982
H          6.11279        2.44823        1.25412
H          6.45788        2.70297       -0.45185
H          4.63366        3.72404       -1.98224
H          4.65446        5.14764       -0.94565
H          3.13774        4.30609       -1.26705
H          6.19855        0.67535       -3.27039
H          4.63481        1.48257       -2.99733
H          6.16306        2.37232       -2.78577
