111
-148.54701237
P         -1.98590        2.57365        0.83874
P         -0.22136       -0.05199        0.46205
C         -1.24069        1.76973        2.27946
C         -0.47045        0.64049        2.11196
C         -1.52535        4.36765        0.87337
C         -0.93907        4.81910       -0.44633
C         -1.37262        2.33489        3.53193
H         -1.95169        3.23598        3.65109
C         -0.73842        1.75981        4.61947
H         -0.84435        2.19899        5.59800
C          0.04527        0.63559        4.44759
H          0.55319        0.19607        5.29024
C          0.18931        0.08254        3.18801
H          0.83238       -0.76974        3.03221
Pd        -1.45804        1.27453       -1.00060
Cl        -2.48988        2.82173       -2.25261
Cl        -0.67003       -0.00811       -2.66656
C         -2.85540        5.06037        1.23372
C         -3.83204        2.70989        0.89985
H         -1.69026        4.77006       -1.23572
H         -0.58225        5.85064       -0.39767
H         -0.10577        4.18231       -0.75033
H         -2.87800        6.06551        0.78781
H         -2.91454        5.21802        2.32059
H         -4.20543        2.17245        0.01705
C         -4.08132        4.22670        0.76640
C         -4.39861        2.09705        2.16267
H         -0.78537        4.48028        1.67780
H         -4.97884        4.50301        1.33853
H         -4.30996        4.47534       -0.28038
H         -4.09022        1.05442        2.27070
H         -4.05234        2.63690        3.04497
H         -5.49070        2.12933        2.16805
C         -0.95060       -4.56720        0.34293
C         -1.16230       -3.85464        1.55252
C         -0.93072       -2.48922        1.55802
C         -0.58170       -1.81690        0.41373
C         -0.52865       -2.48566       -0.78210
C         -0.73891       -3.85054       -0.86347
O         -0.87466       -5.98374        0.35275
C         -1.64001       -4.51060        2.85933
H         -1.02474       -1.93451        2.47391
H         -0.33451       -1.91823       -1.67377
C         -0.74416       -4.49644       -2.25962
C          3.98061        1.10107       -0.86295
C          3.50627       -0.20859       -1.13986
C          2.22313       -0.53822       -0.73942
C          1.44864        0.34939       -0.04086
C          1.93999        1.57712        0.32273
C          3.22477        1.96353       -0.02382
O          5.16709        1.57207       -1.48159
C          4.33075       -1.28563       -1.86514
H          1.80995       -1.50031       -0.98268
H          1.30382        2.23603        0.88997
C          3.76491        3.28114        0.55924
C         -2.77495       -3.66287        3.47590
C         -2.20755       -5.92243        2.63102
C         -0.46912       -4.58215        3.85331
C         -1.33490       -5.91691       -2.24530
C         -1.61973       -3.65311       -3.21327
C          0.69238       -4.54275       -2.80599
C          0.44211       -6.46076        0.57395
H         -2.42587       -2.67805        3.78180
H         -3.58504       -3.52659        2.76002
H         -3.18626       -4.14924        4.36009
H         -1.43507       -6.60706        2.28878
H         -2.62626       -6.33121        3.55033
H         -2.99430       -5.90311        1.87768
H          0.34481       -5.18769        3.45927
H         -0.07356       -3.58845        4.06151
H         -0.78713       -5.02144        4.79848
H         -0.71002       -6.59786       -1.67233
H         -2.32720       -5.91577       -1.79563
H         -1.41902       -6.31789       -3.25509
H         -1.70660       -4.13340       -4.18747
H         -2.62352       -3.53200       -2.80731
H         -1.20178       -2.66166       -3.37845
H          1.34020       -5.13393       -2.16141
H          0.71635       -4.98360       -3.80218
H          1.11414       -3.54080       -2.87344
H          0.80395       -6.12280        1.54361
H          0.43827       -7.55070        0.55084
H          1.11050       -6.08622       -0.19979
C          4.92239        2.21702       -2.72018
C          5.83284       -0.95389       -1.88798
C          4.17892       -2.63727       -1.13127
C          3.81396       -1.43622       -3.30552
C          3.42307        3.35240        2.06468
C          5.29533        3.38604        0.43988
C          3.11045        4.47245       -0.15776
H          6.40892       -1.77006       -2.32335
H          6.03029       -0.06156       -2.47732
H          6.20261       -0.77643       -0.87871
H          3.15844       -3.01339       -1.17752
H          4.82210       -3.39537       -1.57749
H          4.45493       -2.53807       -0.08188
H          2.75233       -1.68039       -3.31411
H          3.94501       -0.51477       -3.86917
H          4.34649       -2.22903       -3.83016
H          3.86383        4.23805        2.52160
H          2.34869        3.40127        2.23468
H          3.80727        2.47728        2.58797
H          5.66874        4.27714        0.94390
H          5.77599        2.51614        0.88609
H          5.60676        3.44189       -0.60052
H          3.48225        5.41720        0.23807
H          2.03023        4.45754       -0.02436
H          3.31480        4.45242       -1.22632
H          4.29247        3.09170       -2.56869
H          5.87140        2.52785       -3.15752
H          4.41680        1.53569       -3.40236
