171
-217.84451229
P         -1.63785        0.40406       -0.43257
P          1.61665       -0.40487       -0.35162
C         -0.90068        1.32361       -1.78351
C          0.91652       -1.37722       -1.68768
C         -0.07123        0.69147       -2.70261
C          0.57000        1.47306       -3.68311
C          0.32564        2.83544       -3.72998
C         -0.52627        3.43716       -2.82814
C         -1.12971        2.67629       -1.84598
C          1.14192       -2.73223       -1.68409
C          0.57472       -3.53350       -2.65537
C         -0.23773       -2.96922       -3.61561
C         -0.48000       -1.60555       -3.63428
C          0.12541       -0.78404       -2.66478
Cl         1.54942        0.52863        2.73522
Cl        -1.62235       -0.42516        2.79115
C         -1.34958       -1.02585       -4.69399
C          1.50264        0.86615       -4.67241
H         -0.71451        4.49690       -2.88356
H         -1.78141        3.13916       -1.12212
H          1.76489       -3.16577       -0.91826
H          0.76365       -4.59456       -2.65954
H          0.81411        3.42689       -4.48601
H         -0.69260       -3.59145       -4.36779
C         -3.98349       -3.31457       -1.49646
C         -2.95277       -3.40465       -0.56821
C         -2.22638       -2.25446       -0.29293
C         -2.52401       -1.07184       -0.92251
C         -3.54396       -0.99811       -1.83895
C         -4.30575       -2.12211       -2.13609
H         -4.55842       -4.19314       -1.71635
H         -1.43241       -2.27639        0.43399
H         -3.75891       -0.05212       -2.30745
C         -4.25389        2.95727        2.25926
C         -4.84810        1.95986        1.49425
C         -4.03336        1.21424        0.65294
C         -2.68526        1.46078        0.58213
C         -2.11626        2.45427        1.34003
C         -2.88911        3.21682        2.20518
H         -4.86655        3.53803        2.92133
H         -4.45176        0.42039        0.05946
H         -1.05334        2.61736        1.27984
C          4.32511       -2.92054        2.27483
C          2.95716       -3.16124        2.30267
C          2.14708       -2.39652        1.47319
C          2.69100       -1.42195        0.67302
C          4.04356       -1.18852        0.66938
C          4.89295       -1.94140        1.46952
H          4.96666       -3.50675        2.90682
H          1.08095       -2.54321        1.45911
H          4.43015       -0.40335        0.04494
C          3.88997        3.30220       -1.58722
C          2.88847        3.41520       -0.63031
C          2.17986        2.26844       -0.29873
C          2.47936        1.06718       -0.89093
C          3.47534        0.96969       -1.83114
C          4.20500        2.09451       -2.19875
H          4.45607        4.17328       -1.85793
H          1.39541        2.30594        0.43719
H          3.68262        0.00617       -2.26487
Pd        -0.05092        0.00235        1.23743
C         -1.18810       -5.14272       -0.20062
C         -2.61184       -4.70161        0.17936
C         -3.58818       -5.83985       -0.17346
C         -2.68991       -4.44752        1.69742
H         -0.89910       -6.04439        0.33903
H         -1.12603       -5.35354       -1.26767
H         -0.46124       -4.36494        0.02873
H         -3.34013       -6.74623        0.37878
H         -4.61325       -5.56899        0.07895
H         -3.54453       -6.08012       -1.23558
H         -2.46770       -5.35564        2.25745
H         -1.98115       -3.68246        2.01096
H         -3.68731       -4.11151        1.97989
C         -6.27483       -3.32377       -3.21923
C         -5.49113       -2.00156       -3.10650
C         -4.97461       -1.62069       -4.50422
C         -6.45340       -0.91142       -2.59787
H         -5.64445       -4.12266       -3.60925
H         -6.66570       -3.63153       -2.24948
H         -7.12180       -3.21420       -3.89649
H         -4.30408       -2.38916       -4.88736
H         -5.79926       -1.51365       -5.20875
H         -4.43200       -0.67642       -4.48017
H         -7.32838       -0.83096       -3.24262
H         -6.79712       -1.14109       -1.58944
H         -5.96872        0.06362       -2.57520
C         -6.98087        1.96544        0.18381
C         -6.35088        1.65030        1.55198
C         -7.06669        2.48860        2.62852
C         -6.55257        0.15907        1.88524
H         -6.84829        3.01739       -0.06832
H         -6.52005        1.37352       -0.60543
H         -8.04909        1.74933        0.18542
H         -6.98979        3.55418        2.41341
H         -8.12671        2.23854        2.67137
H         -6.64285        2.30239        3.61519
H         -6.12733       -0.48350        1.11534
H         -6.07288       -0.09113        2.83124
H         -7.61209       -0.08204        1.96902
C         -1.15079        3.55946        3.97442
C         -2.20294        4.26305        3.09492
C         -3.20855        4.98075        4.01508
C         -1.51557        5.31470        2.20676
H         -0.38509        3.07597        3.36919
H         -0.65397        4.27005        4.63449
H         -1.61724        2.79190        4.59143
H         -2.70280        5.71596        4.64091
H         -3.96547        5.50744        3.43420
H         -3.70858        4.27351        4.67654
H         -0.75718        4.85647        1.57539
H         -2.24022        5.80564        1.55747
H         -1.02820        6.07963        2.81104
C          0.84369       -4.27339        3.18161
C          2.38281       -4.22580        3.24784
C          2.79185       -3.89412        4.69509
C          2.93416       -5.60670        2.85129
H          0.40965       -3.30963        3.44774
H          0.50483       -4.54281        2.18253
H          0.44821       -5.01659        3.87372
H          2.43452       -2.90360        4.97624
H          2.37137       -4.61629        5.39467
H          3.87432       -3.90617        4.81546
H          2.53392       -6.38721        3.49816
H          2.66340       -5.84792        1.82343
H          4.02066       -5.63450        2.92642
C          6.82590       -1.28267        2.92120
C          6.40908       -1.70267        1.50000
C          6.82819       -0.58972        0.51862
C          7.13828       -2.99980        1.10460
H          6.59555       -2.06134        3.64739
H          7.89643       -1.08471        2.97188
H          6.29973       -0.37745        3.22371
H          6.35488        0.35810        0.77456
H          7.90692       -0.43629        0.54468
H          6.55621       -0.84737       -0.50481
H          8.21825       -2.85329        1.09738
H          6.91682       -3.80762        1.80103
H          6.83478       -3.32326        0.10906
C          2.41143        4.54816        1.56739
C          2.53449        4.74877        0.04325
C          1.19610        5.24836       -0.52324
C          3.61329        5.81898       -0.21322
H          1.60249        3.86454        1.81923
H          3.33450        4.13894        1.97719
H          2.20902        5.49389        2.06978
H          0.89026        6.17985       -0.04730
H          1.27627        5.42635       -1.59530
H          0.41001        4.51125       -0.36615
H          3.37844        6.73989        0.32045
H          4.59055        5.47678        0.12705
H          3.68219        6.06544       -1.27240
C          5.50152        0.62455       -3.82334
C          5.37259        2.02558       -3.19386
C          6.68166        2.34843       -2.45033
C          5.15610        3.05047       -4.32364
H          4.58952        0.34356       -4.34887
H          6.31938        0.59812       -4.54329
H          5.70874       -0.12979       -3.06462
H          6.65429        3.34913       -2.02040
H          6.84802        1.64100       -1.63844
H          7.53676        2.29657       -3.12406
H          4.21603        2.86594       -4.84158
H          5.13015        4.06887       -3.93834
H          5.96011        2.99553       -5.05740
H         -0.76212       -0.73541       -5.56564
H          1.78236       -0.14957       -4.38991
H         -1.87693       -0.14229       -4.33147
H         -2.09695       -1.74766       -5.02406
H          2.41969        1.45060       -4.74561
H          1.05049        0.82998       -5.66447
