171
-217.84211819
P         -1.63025        0.57880       -0.17320
P          1.52026       -0.26803       -0.36003
C         -0.95629        1.64849       -1.45995
C          0.78677       -1.04960       -1.79980
C         -0.16848        1.15284       -2.49468
C          0.45908        2.06588       -3.36389
C          0.23572        3.42270       -3.20358
C         -0.57688        3.89362       -2.19581
C         -1.16039        3.00094       -1.31935
C          0.99907       -2.39245       -1.99206
C          0.42690       -3.03904       -3.07007
C         -0.36343       -2.32962       -3.94941
C         -0.58888       -0.97391       -3.77425
C          0.01283       -0.31136       -2.68615
Cl         1.94114        0.95193        2.55065
Cl        -1.30615        0.25937        3.12900
C         -1.44353       -0.23865       -4.74697
C          1.36460        1.60833       -4.45230
H         -0.74552        4.95218       -2.08289
H         -1.78147        3.36621       -0.51868
H          1.61911       -2.93577       -1.29765
H          0.59499       -4.09275       -3.22164
H          0.71084        4.11330       -3.87991
H         -0.81387       -2.83014       -4.78977
C         -3.17215       -3.49069       -1.40989
C         -2.21097       -3.41842       -0.40858
C         -1.73827       -2.16152       -0.05600
C         -2.20289       -1.03718       -0.69458
C         -3.15231       -1.12533       -1.68251
C         -3.66476       -2.36247       -2.05438
H         -3.56379       -4.44944       -1.69294
H         -1.00935       -2.05714        0.72879
H         -3.49425       -0.21840       -2.15179
C         -4.85288        2.70057        2.21115
C         -5.21337        1.62512        1.40876
C         -4.21200        0.99456        0.68144
C         -2.91232        1.43006        0.75874
C         -2.57484        2.49243        1.56024
C         -3.54266        3.15218        2.30562
H         -5.61297        3.19284        2.78959
H         -4.43663        0.14762        0.05857
H         -1.54068        2.78506        1.62297
C          3.78700       -3.50572        1.92059
C          2.60350       -3.02447        2.46041
C          1.91946       -2.04856        1.75018
C          2.42567       -1.53199        0.57978
C          3.61267       -2.00904        0.07709
C          4.31367       -3.01399        0.73417
H          4.31231       -4.28738        2.43786
H          0.98318       -1.68386        2.12781
H          3.98377       -1.60275       -0.84554
C          4.15283        3.21202       -1.59657
C          3.12769        3.42081       -0.68345
C          2.35600        2.32747       -0.31532
C          2.59023        1.08724       -0.85521
C          3.58773        0.90642       -1.78317
C          4.40950        1.96465       -2.15447
H          4.76693        4.04858       -1.87162
H          1.55565        2.44089        0.39395
H          3.71398       -0.06006       -2.23901
Pd         0.09081        0.45477        1.38215
C         -2.09345       -4.53261        1.82834
C         -1.70483       -4.65768        0.34416
C         -0.17414       -4.75215        0.21406
C         -2.31670       -5.95627       -0.21551
H         -3.17609       -4.47499        1.93876
H         -1.73991       -5.39037        2.40010
H         -1.66756       -3.63401        2.27154
H          0.20798       -5.63461        0.72624
H          0.11727       -4.82388       -0.83277
H          0.31509       -3.87900        0.64214
H         -1.93542       -6.82510        0.32097
H         -3.40158       -5.95665       -0.11195
H         -2.06841       -6.08332       -1.26915
C         -6.00511       -3.16407       -2.45527
C         -4.77249       -2.50955       -3.10722
C         -4.26674       -3.39284       -4.26215
C         -5.19927       -1.14417       -3.68084
H         -6.36204       -2.56373       -1.61866
H         -6.81999       -3.26179       -3.17236
H         -5.77305       -4.15908       -2.07750
H         -5.02914       -3.50053       -5.03348
H         -3.38117       -2.95691       -4.72235
H         -4.00355       -4.39033       -3.91233
H         -5.58671       -0.49357       -2.89725
H         -4.36366       -0.64008       -4.16393
H         -5.98526       -1.26642       -4.42596
C         -7.11400        0.72593        2.77268
C         -6.67457        1.15646        1.36135
C         -6.85673       -0.04086        0.40697
C         -7.56451        2.31198        0.86819
H         -6.47674       -0.07585        3.14529
H         -7.05350        1.55522        3.47647
H         -8.14275        0.36614        2.76863
H         -6.25859       -0.89365        0.72772
H         -7.89838       -0.36054        0.38106
H         -6.56736        0.22177       -0.61023
H         -8.60737        2.00162        0.80518
H         -7.51181        3.16769        1.54027
H         -7.25051        2.64369       -0.12136
C         -3.52061        3.91775        4.68863
C         -3.19177        4.31862        3.23936
C         -4.01190        5.55888        2.84020
C         -1.69421        4.67867        3.16010
H         -3.26429        4.71744        5.38324
H         -4.58112        3.69852        4.80704
H         -2.96121        3.02749        4.97569
H         -3.76481        6.41020        3.47427
H         -3.80845        5.83761        1.80637
H         -5.08145        5.37458        2.93310
H         -1.41293        4.96522        2.14687
H         -1.46232        5.51705        3.81666
H         -1.07151        3.83881        3.46795
C          3.21329       -3.39935        4.86562
C          2.09955       -3.55260        3.81200
C          1.71901       -5.03613        3.67152
C          0.86669       -2.76799        4.30460
H          4.09156       -3.98919        4.60683
H          3.52129       -2.35722        4.94851
H          2.87025       -3.72886        5.84619
H          0.91971       -5.16112        2.94267
H          2.56969       -5.63176        3.34196
H          1.37285       -5.44180        4.62199
H          0.54294       -3.12774        5.28096
H          1.09148       -1.70579        4.40045
H          0.02719       -2.88025        3.62062
C          5.38553       -5.08101       -0.18565
C          5.61865       -3.60455        0.18131
C          6.72433       -3.50063        1.24913
C          6.09363       -2.85341       -1.07630
H          6.29109       -5.53003       -0.59325
H          5.08722       -5.66151        0.68675
H          4.59706       -5.17161       -0.93272
H          6.47399       -4.07419        2.14052
H          7.67182       -3.88005        0.86683
H          6.87255       -2.46328        1.54863
H          7.02885       -3.27179       -1.44819
H          5.35995       -2.92395       -1.87911
H          6.26767       -1.80153       -0.85259
C          1.65278        4.83854        0.83151
C          2.88877        4.81687       -0.09126
C          2.66014        5.82621       -1.23142
C          4.12112        5.23143        0.73190
H          1.78434        4.16926        1.68148
H          1.48123        5.83988        1.22599
H          0.75530        4.53826        0.29160
H          3.53183        5.89784       -1.88056
H          1.81055        5.52777       -1.84432
H          2.45753        6.82146       -0.83618
H          4.30380        4.51754        1.53489
H          5.01513        5.27186        0.11058
H          3.97921        6.21499        1.17936
C          6.41298        0.53657       -2.66043
C          5.56442        1.72851       -3.14172
C          6.48394        2.96106       -3.24679
C          4.99753        1.41888       -4.53749
H          7.28226        0.39121       -3.30160
H          6.76706        0.70088       -1.64288
H          5.83649       -0.38678       -2.67504
H          5.94722        3.82090       -3.64697
H          6.89105        3.22900       -2.27191
H          7.32314        2.76153       -3.91310
H          4.33172        0.55688       -4.50917
H          4.43804        2.26981       -4.92404
H          5.79894        1.19946       -5.24283
H         -2.24031       -0.87663       -5.13035
H          2.25408        2.23690       -4.49554
H         -0.85710        0.10354       -5.60029
H         -1.91018        0.63246       -4.28465
H          0.87054        1.66446       -5.42307
H          1.69285        0.58006       -4.29503
