105
-153.07065189
Cl         0.03254        1.64459        3.12827
Pd        -0.60173        1.20933        1.00790
P         -1.29431        0.52410       -1.13015
N         -1.02827       -1.05360       -1.85448
C          0.03146       -1.93390       -1.61138
C          0.30870       -2.44213       -0.31540
C          1.34863       -3.37785       -0.14560
C          1.59959       -3.94632        1.23079
C          2.49276       -5.19645        1.25146
C          3.69731       -5.02541        0.32152
C          3.23703       -4.78194       -1.12367
C          2.10441       -3.79320       -1.24511
C          1.79608       -3.30296       -2.50794
C          0.77841       -2.40381       -2.69172
H          0.55321       -2.03596       -3.67745
H          2.37416       -3.63920       -3.35205
H          4.07793       -4.43257       -1.73642
H          4.29954       -4.17375        0.66166
H          2.82114       -5.42526        2.27519
H          2.05176       -3.16292        1.84971
C         -0.61951       -2.17244        0.80715
C         -0.14170       -1.56719        2.00175
C         -1.01376       -1.46792        3.09056
C         -2.30983       -1.90559        3.00080
C         -2.79615       -2.49539        1.84046
C         -4.22597       -2.98486        1.84020
C         -4.71725       -3.55600        0.49811
C         -3.60176       -4.31563       -0.22531
C         -2.40371       -3.39162       -0.48439
C         -1.94268       -2.65073        0.74632
H         -1.56460       -3.96882       -0.89258
H         -3.96990       -4.75467       -1.16343
H         -5.06801       -2.73949       -0.14461
H         -4.87561       -2.16024        2.16020
H         -2.97097       -1.79648        3.84385
H         -0.66467       -0.99482        3.99152
N          1.13588       -0.99684        2.09321
P          1.55186        0.21412        0.87949
C          2.66316       -0.36668       -0.39434
C          2.50869        0.10037       -1.67485
C          3.40527       -0.27924       -2.65650
C          4.46623       -1.12234       -2.35325
C          4.62621       -1.55144       -1.04204
C          3.72536       -1.17216       -0.06291
H          3.84565       -1.49551        0.95878
H          5.46010       -2.18505       -0.79286
C          5.43613       -1.52826       -3.40710
H          3.28335        0.07622       -3.66530
H          1.68608        0.75712       -1.89738
C          2.40519        1.63079        1.58669
C          3.20327        1.48441        2.69543
C          3.86254        2.58390        3.21453
C          3.73591        3.83135        2.61790
C          2.92870        3.95611        1.49512
C          2.27063        2.85606        0.97666
H          1.64917        2.94832        0.09946
H          2.81583        4.92072        1.03047
C          4.42023        5.02051        3.19674
H          4.47916        2.47960        4.09091
H          3.31127        0.51314        3.15002
H          1.33629       -0.54935        2.97799
H         -1.34022       -0.94845       -2.81134
C         -0.52273        1.81785       -2.10935
C         -0.47936        3.10168       -1.61714
C          0.14764        4.09729       -2.34283
C          0.72147        3.81765       -3.57546
C          0.65675        2.51929       -4.06254
C          0.02963        1.52533       -3.33406
H         -0.00685        0.51556       -3.70700
H          1.10747        2.28977       -5.01301
C          1.42738        4.88166       -4.34160
H          0.19498        5.10036       -1.95442
H         -0.94677        3.32310       -0.67067
C         -3.07186        0.76291       -1.21100
C         -3.61175        1.72167       -2.03560
C         -4.98313        1.89214       -2.08766
C         -5.82245        1.10843       -1.30746
C         -5.25893        0.13913       -0.48955
C         -3.88734       -0.03245       -0.44515
H         -3.44126       -0.76554        0.20552
H         -5.90150       -0.47210        0.12056
C         -7.30041        1.27829       -1.37173
H         -5.41015        2.64004       -2.73374
H         -2.95983        2.33558       -2.63534
Cl        -2.69570        1.91293        1.39347
H          2.92071       -5.73007       -1.57471
H          1.90743       -6.06680        0.92923
H          4.36262       -5.89851        0.37963
H          0.63357       -4.16918        1.70121
H         -3.27953       -5.16355        0.39204
H         -2.66209       -2.66022       -1.25854
H         -4.32435       -3.75015        2.61949
H         -5.59273       -4.20343        0.64795
H          4.95325       -1.58774       -4.38356
H          6.25416       -0.81020       -3.47843
H          5.86508       -2.50776       -3.19081
H          3.79998        5.48873        3.96220
H          5.37007        4.74308        3.65599
H          4.62940        5.76748        2.42971
H          0.98024        5.85999       -4.15989
H          2.47832        4.93307       -4.05365
H          1.38121        4.69122       -5.41476
H         -7.73655        0.60223       -2.10840
H         -7.76206        1.06770       -0.40601
H         -7.56834        2.29839       -1.65031
