58
-89.86506626
P          1.67982        0.05489        0.82027
C          2.57624        1.61337        0.67506
C          3.01044        2.29684        1.78978
C          3.70478        3.48444        1.64450
C          3.96559        3.98199        0.38336
C          3.53526        3.29355       -0.73261
C          2.84155        2.10802       -0.58134
H          2.50697        1.55452       -1.44250
H          2.80967        1.90471        2.77274
C          2.70635       -1.31783        0.28950
C          2.11861       -2.53488        0.03007
C          2.89801       -3.59803       -0.38880
C          4.26045       -3.43312       -0.54339
C          4.84511       -2.20953       -0.28154
C          4.06307       -1.14784        0.13631
H          4.50292       -0.18448        0.33815
H          1.05253       -2.64674        0.14583
C          1.17407       -0.23494        2.56175
C          0.07837        0.72695        3.00933
C         -1.32394        0.22171        2.72032
P         -1.70960        0.06081        0.92220
C         -2.30180       -1.60543        0.57540
C         -3.41222       -1.81070       -0.21099
C         -3.81756       -3.09869       -0.50947
C         -3.10291       -4.17514       -0.02245
C         -1.98381       -3.96660        0.75899
C         -1.58176       -2.67683        1.05586
H         -0.70773       -2.50274        1.66123
H         -3.94426       -0.96245       -0.60941
C         -2.91151        1.32655        0.49802
C         -4.21409        1.18994        0.92151
C         -5.14469        2.16455        0.60806
C         -4.76125        3.27229       -0.12190
C         -3.45068        3.41044       -0.53444
C         -2.52215        2.43484       -0.21919
H         -1.49497        2.53345       -0.53215
H         -4.49674        0.32284        1.49760
Pd        -0.05822        0.05729       -0.71388
Cl         1.48149       -0.13674       -2.34597
Cl        -1.73771       -0.04574       -2.20831
H         -1.48230       -0.75633        3.17889
H         -2.08128        0.88765        3.14177
H          0.17527        0.92327        4.08880
H          0.22756        1.70084        2.52225
H          0.85380       -1.27247        2.66393
H          2.08075       -0.13381        3.16286
H          4.04279        4.02031        2.51630
H          3.73996        3.67683       -1.71876
H          2.44088       -4.55123       -0.59785
H          5.90767       -2.07997       -0.40580
H         -4.68480       -3.26048       -1.12833
H         -1.42214       -4.80616        1.13455
H         -6.16650        2.05849        0.93354
H         -3.15074        4.27562       -1.10257
H          4.50696        4.90714        0.27021
H          4.86831       -4.26026       -0.87210
H         -3.41611       -5.17945       -0.25694
H         -5.48570        4.03125       -0.36864
