111
-148.54743282
P         -2.11670        2.22511        1.36175
P          0.12403        0.15264        0.50453
C         -1.06333        1.47706        2.62573
C         -0.12858        0.53663        2.25262
C         -2.19233        4.06581        1.49928
C         -1.79091        4.70025        0.18522
C         -1.21523        1.81153        3.95586
H         -1.93288        2.56524        4.23621
C         -0.44448        1.18017        4.91661
H         -0.56339        1.43853        5.95620
C          0.46915        0.21278        4.54489
H          1.06216       -0.28681        5.29319
C          0.62635       -0.11086        3.20915
H          1.33147       -0.86863        2.90459
Pd        -1.51935        1.31603       -0.66872
Cl        -3.37623        2.11208       -1.64472
Cl        -0.82261        0.30817       -2.55770
C         -3.65919        4.33000        1.89893
C         -3.91398        1.80529        1.54486
H         -0.77499        4.41570       -0.10027
H         -2.45953        4.37778       -0.61561
H         -1.83596        5.79092        0.23540
H         -3.98636        5.29202        1.47822
H         -3.73543        4.44313        2.99035
H         -4.17216        1.16389        0.69096
C         -4.59946        3.18227        1.43420
C         -4.19779        1.08520        2.84571
H         -1.49961        4.35804        2.30019
H         -5.52937        3.17940        2.02140
H         -4.90567        3.36294        0.39326
H         -5.24468        0.78051        2.91541
H         -3.57736        0.19280        2.94880
H         -3.98869        1.73201        3.69892
C         -1.18131       -4.13130       -0.32715
C         -1.84494       -3.35529        0.65683
C         -1.39064       -2.06837        0.89662
C         -0.34987       -1.54121        0.17574
C          0.22733       -2.25109       -0.84401
C         -0.20312       -3.52890       -1.15934
O         -1.47986       -5.51463       -0.44910
C         -3.02958       -3.90886        1.46304
H         -1.84350       -1.45507        1.65672
H          1.01447       -1.78558       -1.40924
C          0.37449       -4.21563       -2.40745
C          4.38415        1.12505       -0.84815
C          4.04350        1.21574        0.52510
C          2.75067        0.89409        0.90289
C          1.79386        0.56845       -0.02436
C          2.09537        0.59819       -1.36096
C          3.36948        0.89580       -1.81071
O          5.73809        1.24364       -1.26179
C          5.05188        1.63929        1.60567
H          2.47280        0.90305        1.94055
H          1.30221        0.40179       -2.05828
C          3.64394        0.95033       -3.32218
C         -2.50265       -4.71609        2.65874
C         -3.91626       -2.76361        2.00025
C         -3.92016       -4.79696        0.57538
C          1.69555       -4.90917       -2.04330
C         -0.61785       -5.23362       -2.99850
C          0.64792       -3.16958       -3.51298
C         -0.59547       -6.36201        0.27316
H         -1.91041       -5.56580        2.32910
H         -1.87110       -4.09564        3.29425
H         -3.32416       -5.09588        3.26569
H         -4.82428       -3.15776        2.45600
H         -3.39893       -2.18689        2.76548
H         -4.21121       -2.08907        1.19666
H         -4.79261       -5.15044        1.12427
H         -4.26828       -4.24234       -0.29538
H         -3.37749       -5.67017        0.22034
H          2.12896       -5.40422       -2.91194
H          2.42052       -4.18566       -1.67094
H          1.54754       -5.65711       -1.26757
H         -0.80933       -6.05118       -2.30873
H         -1.57118       -4.75447       -3.21899
H         -0.23333       -5.66522       -3.92225
H          0.93450       -3.65529       -4.44539
H         -0.24124       -2.56972       -3.70560
H          1.45832       -2.49664       -3.24027
H         -1.17634       -7.05572        0.88112
H          0.01132       -6.94365       -0.41995
H          0.05639       -5.77052        0.91729
C          6.46015        0.01852       -1.25604
C          6.08484        2.63304        1.04367
C          4.33294        2.35442        2.77309
C          5.75905        0.39258        2.15851
C          4.67617        2.04425       -3.65012
C          4.15329       -0.41766       -3.80042
C          2.35584        1.29171       -4.10548
H          6.69188        2.17859        0.26502
H          5.58673        3.50140        0.61376
H          6.75932        2.98139        1.82548
H          3.71356        3.17169        2.40446
H          3.69988        1.67146        3.33766
H          5.05526        2.77213        3.47409
H          6.29087       -0.14070        1.37440
H          6.47902        0.66225        2.93079
H          5.03737       -0.29700        2.59591
H          4.33925        3.01257       -3.28159
H          5.63902        1.82958       -3.19254
H          4.83259        2.12589       -4.72543
H          4.32950       -0.41435       -4.87579
H          5.08517       -0.68584       -3.30977
H          3.42640       -1.19825       -3.57986
H          1.89173        2.19714       -3.71549
H          1.62797        0.48316       -4.05477
H          2.57636        1.45686       -5.15975
H          6.89191       -0.15298       -2.24201
H          7.27565        0.07514       -0.53553
H          5.80137       -0.81106       -0.99621
