87
-129.18339916
P         -1.48389       -0.40519       -0.30203
P          1.70911        0.23669        0.23212
C         -1.08815        0.79052       -1.58513
C          1.60235       -0.89868       -1.17367
C         -0.00910        0.55818       -2.42877
C          0.29294        1.51019       -3.42325
C         -0.50356        2.63730       -3.54152
C         -1.57411        2.84515       -2.69751
C         -1.86287        1.91672       -1.71715
C          2.31138       -2.06895       -1.03943
C          2.23277       -3.05347       -2.00439
C          1.42476       -2.86537       -3.10365
C          0.69228       -1.70155       -3.25896
C          0.78857       -0.68806       -2.28538
Cl         1.05711        0.09628        3.41332
Cl        -1.60781       -1.67795        2.66014
H         -2.17997        3.73066       -2.79845
H         -2.69942        2.06919       -1.05586
H          2.92810       -2.21795       -0.16840
H          2.79198       -3.96784       -1.89187
H         -0.27024        3.36267       -4.30240
H          1.34913       -3.63406       -3.85404
C         -2.28492       -4.46576       -2.17125
C         -2.80298       -3.32308       -2.76495
C         -2.55800       -2.09380       -2.16284
C         -1.80659       -2.01895       -1.01324
C         -1.30162       -3.15618       -0.42851
C         -1.53901       -4.38615       -1.01171
H         -2.47534       -5.42323       -2.62548
C         -3.62594       -3.41528       -4.00148
H         -2.94838       -1.18973       -2.60088
H         -0.73699       -3.07861        0.48620
H         -1.14544       -5.28138       -0.55896
C         -5.14789        1.03429        1.99481
C         -5.21191       -0.13698        1.26597
C         -4.10370       -0.57513        0.56603
C         -2.94342        0.16192        0.59590
C         -2.87730        1.32782        1.32308
C         -3.97771        1.77953        2.04014
H         -6.01063        1.37835        2.53937
H         -6.12354       -0.71137        1.24514
H         -4.13643       -1.49205        0.00065
H         -1.96473        1.89830        1.33226
C         -3.90191        3.05059        2.81047
C          5.66003       -0.36474        2.41675
C          4.63138       -1.26533        2.60931
C          3.42584       -1.08533        1.95810
C          3.25715       -0.00831        1.11904
C          4.28139        0.89017        0.92605
C          5.49775        0.73033        1.57975
H          6.60153       -0.50514        2.91995
H          4.76581       -2.10633        3.26969
H          2.60964       -1.77285        2.11429
H          4.13643        1.72729        0.26470
C          6.61221        1.69060        1.35372
C          0.99788        4.64382       -0.61985
C          1.86797        3.92910       -1.41993
C          2.10176        2.59121       -1.16222
C          1.46108        1.98186       -0.10955
C          0.62330        2.70061        0.71217
C          0.37143        4.04404        0.46398
H          0.80032        5.68104       -0.83050
H          2.35355        4.40925       -2.25360
H          2.76316        2.01301       -1.78755
H          0.18732        2.22307        1.57284
C         -0.58258        4.80484        1.31558
Pd        -0.07091       -0.46994        1.56336
C          1.45310        1.33840       -4.34109
C         -0.18370       -1.55595       -4.45522
H          1.11794        1.09405       -5.34984
H          2.04269        2.25461       -4.39736
H          2.11646        0.54141       -4.00336
H         -0.73351       -2.47820       -4.64770
H         -0.91677       -0.75997       -4.32122
H          0.40590       -1.32690       -5.34366
H         -3.65474       -2.46082       -4.52925
H         -3.22065       -4.16079       -4.68725
H         -4.65218       -3.69843       -3.76333
H         -4.67086        3.09180        3.58310
H         -2.93328        3.15087        3.30244
H         -4.03763        3.91087        2.15350
H          7.24085        1.77980        2.24085
H          7.24238        1.36462        0.52506
H          6.23196        2.68530        1.11652
H         -0.59894        4.41318        2.33369
H         -0.30783        5.85910        1.37037
H         -1.59475        4.74023        0.91357
