111
-148.55177490
P         -2.24816        2.20815        1.00605
P          0.10876        0.15050        0.46786
C         -1.25371        1.58968        2.38879
C         -0.23081        0.70022        2.14773
C         -2.50101        4.03179        1.19176
C         -2.09720        4.76362       -0.06917
C         -1.50671        2.01353        3.67778
H         -2.30237        2.71727        3.86014
C         -0.73614        1.53598        4.72397
H         -0.93374        1.86575        5.73086
C          0.28480        0.63761        4.47928
H          0.88397        0.26463        5.29356
C          0.53801        0.21748        3.18560
H          1.33112       -0.48313        2.97501
Pd        -1.33155        1.31995       -0.92282
Cl        -3.00221        2.32621       -2.03232
Cl        -0.37327        0.33133       -2.69113
C         -4.00169        4.14407        1.53173
C         -4.00642        1.62764        1.03066
H         -2.22819        5.84347        0.03382
H         -1.05196        4.57140       -0.32336
H         -2.70627        4.43743       -0.91370
H         -4.39642        5.09263        1.13933
H         -4.13608        4.19687        2.62212
H         -4.15078        1.04075        0.11371
C         -4.81206        2.94163        0.97175
C         -4.29173        0.77838        2.25086
H         -1.87661        4.35339        2.03649
H         -5.75569        2.81905        1.52301
H         -5.10185        3.15354       -0.06800
H         -5.31605        0.39821        2.24433
H         -3.61366       -0.07635        2.30785
H         -4.16306        1.36073        3.16461
C         -1.23933       -4.18369        0.09281
C         -2.17928       -3.12526        0.00834
C         -1.71914       -1.82731        0.15621
C         -0.38100       -1.56147        0.28952
C          0.54202       -2.57423        0.27634
C          0.14868       -3.89541        0.13969
O         -1.68843       -5.52928        0.16549
C         -3.67862       -3.36241       -0.23200
H         -2.40780       -1.00026        0.17345
H          1.58114       -2.31827        0.38562
C          1.22099       -4.99398        0.06559
C          4.38648        1.10208       -0.78999
C          3.75670        1.86299        0.22772
C          2.46998        1.51503        0.60501
C          1.79111        0.50883       -0.03265
C          2.35470       -0.15199       -1.09247
C          3.63976        0.14065       -1.51733
O          5.76700        1.28382       -1.07168
C          4.44458        3.04538        0.92876
H          1.97414        2.03145        1.40874
H          1.76253       -0.89316       -1.59999
C          4.20992       -0.57805       -2.75048
C         -4.39584       -3.50682        1.11855
C         -4.30078       -2.17119       -0.99642
C         -3.91039       -4.61630       -1.09461
C          0.75502       -6.16461       -0.81933
C          2.52069       -4.44539       -0.56499
C          1.53611       -5.49444        1.48314
C         -1.93900       -5.98638        1.48853
H         -4.26167       -2.61077        1.72390
H         -5.46523       -3.66193        0.97790
H         -4.00551       -4.34930        1.68441
H         -4.33661       -1.27395       -0.38158
H         -3.73023       -1.94719       -1.89743
H         -5.32485       -2.39405       -1.29479
H         -4.96838       -4.74668       -1.32069
H         -3.36904       -4.53826       -2.03686
H         -3.56931       -5.51562       -0.58804
H         -0.11399       -6.66141       -0.39513
H          0.48495       -5.80982       -1.81340
H          1.54112       -6.91151       -0.92733
H          3.00548       -3.71562        0.08173
H          3.23786       -5.24818       -0.73479
H          2.31374       -3.97318       -1.52494
H          2.30337       -6.26798        1.46263
H          1.89603       -4.67798        2.10879
H          0.65187       -5.91100        1.95948
H         -2.98233       -6.28767        1.58041
H         -1.31468       -6.85453        1.69917
H         -1.72250       -5.19845        2.21100
C          6.63443        0.48134       -0.28079
C          5.18278        2.53717        2.17637
C          5.42638        3.75930       -0.01825
C          3.40180        4.09896        1.36849
C          5.11122        0.36857       -3.56375
C          5.00721       -1.81244       -2.30408
C          3.07406       -1.04238       -3.69047
H          5.67890        3.35578        2.69713
H          4.48638        2.06792        2.87101
H          5.93651        1.79812        1.91580
H          4.91645        4.08475       -0.92437
H          5.86361        4.63617        0.45863
H          6.24246        3.10470       -0.31297
H          3.89328        4.99508        1.74668
H          2.77025        4.39230        0.53025
H          2.76164        3.72569        2.16646
H          4.56340        1.26471       -3.85328
H          5.97966        0.67957       -2.98777
H          5.47240       -0.11649       -4.47020
H          4.37695       -2.49211       -1.73235
H          5.39795       -2.35658       -3.16356
H          5.84808       -1.53300       -1.67482
H          2.48167       -1.83878       -3.24237
H          3.47893       -1.43181       -4.62419
H          2.40841       -0.21463       -3.93378
H          7.25658        1.11928        0.34635
H          6.05749       -0.19708        0.34895
H          7.29061       -0.09482       -0.93304
