64
-97.21019528
Cl        -1.51577       -1.45952       -2.56774
Cl         1.69133       -1.36936       -2.85071
P          1.98998       -0.61402        0.24700
C          2.25612       -2.28963        0.98712
C          3.75535       -0.11989       -0.04240
P         -1.31601       -0.16259        0.38060
C          1.24274        0.56290        1.43225
C         -0.19011        0.78449        1.47653
C         -0.43567        1.90035        2.37874
C          0.83954        2.34575        2.91209
C          1.87968        1.52561        2.31749
H         -1.40880        2.33586        2.61060
H          0.99062        3.16155        3.62232
Pd         0.21040       -0.96919       -1.21917
H          2.95322        1.61435        2.49652
C         -4.91243        2.40045       -0.74063
C         -4.19407        1.76200       -1.73182
C         -3.11439        0.96812       -1.39478
C         -2.74636        0.82751       -0.07604
C         -3.47498        1.44381        0.91600
C         -4.55942        2.23647        0.58428
H         -5.75621        3.01874       -1.00050
H         -4.47858        1.87458       -2.76518
H         -2.57139        0.43058       -2.15335
H         -3.20403        1.28850        1.94772
H         -5.12809        2.72321        1.35958
C         -2.76631       -3.97188        2.38171
C         -2.40655       -2.88422        3.15404
C         -1.96991       -1.72101        2.54539
C         -1.89508       -1.65832        1.17318
C         -2.25596       -2.73642        0.39992
C         -2.69312       -3.90028        1.00414
H         -3.10639       -4.87841        2.85531
H         -2.46471       -2.94077        4.22863
H         -1.68136       -0.86325        3.13203
H         -2.18922       -2.65646       -0.67322
H         -2.97511       -4.74769        0.40111
C          4.12502       -0.14336       -1.50890
H          3.87297        0.89228        0.36618
C          4.53852       -1.15003        0.79503
H          4.70520       -0.75909        1.80955
C          3.77922       -2.50096        0.88224
H          5.53960       -1.29405        0.36289
C          1.73280       -2.32328        2.40660
H          1.71203       -3.00756        0.35809
H          4.12950       -3.08794        1.74346
H          4.01322       -3.10795       -0.00443
H          2.24395       -1.57974        3.02145
H          0.66485       -2.09859        2.44121
H          1.88693       -3.30115        2.86891
H          5.17195        0.12721       -1.66292
H          3.97773       -1.14205       -1.92314
H          3.51141        0.54574       -2.09150
Fe         0.79192        2.42333        0.84420
C          2.11502        3.17365       -0.54141
C          1.34582        4.23723        0.08208
C         -0.06279        3.97808       -0.16499
C         -0.16081        2.75126       -0.93422
C          1.18179        2.25546       -1.16546
H          3.20445        3.09848       -0.56454
H          1.75575        5.09523        0.62003
H         -0.90000        4.60016        0.16032
H         -1.08347        2.29357       -1.29159
H          1.44059        1.37391       -1.75511
