111
-148.55569729
P         -2.52716        2.10256        1.07874
P          0.07830        0.39044        0.53830
C         -1.44848        1.64426        2.46245
C         -0.29554        0.93114        2.21551
C         -3.22246        3.80538        1.28484
C         -2.57170        4.78452        0.33225
C         -1.77975        1.98933        3.75711
H         -2.69228        2.53016        3.94756
C         -0.94698        1.62454        4.80111
H         -1.20482        1.89308        5.81257
C          0.21169        0.91474        4.54939
H          0.85836        0.62899        5.36261
C          0.53694        0.56338        3.25149
H          1.42949       -0.00367        3.03735
Pd        -1.35368        1.57138       -0.83864
Cl        -3.05592        2.47709       -1.98564
Cl        -0.02492        1.09878       -2.58629
C         -4.73073        3.59079        1.05791
C         -4.08935        1.11361        1.01383
H         -2.98260        5.78990        0.45048
H         -1.49223        4.83720        0.49335
H         -2.73306        4.48297       -0.70369
H         -4.95892        3.78754        0.00131
H         -5.31413        4.32911        1.62879
H         -4.21925        0.81962       -0.03638
C         -5.16373        2.14035        1.41730
C         -4.00734       -0.10575        1.90636
H         -3.03051        4.09552        2.32571
H         -5.33503        2.06637        2.50006
H         -6.12750        1.89031        0.94819
H         -4.93689       -0.67936        1.88649
H         -3.19493       -0.76655        1.59607
H         -3.81727        0.18322        2.94167
C         -1.07847       -3.95812       -0.13587
C         -1.13462       -3.42325        1.17738
C         -0.77755       -2.09804        1.36206
C         -0.45448       -1.30110        0.29569
C         -0.50960       -1.78326       -0.98468
C         -0.85528       -3.09796       -1.24129
O         -1.20076       -5.35846       -0.33866
C         -1.52968       -4.26836        2.39832
H         -0.72820       -1.67347        2.34900
H         -0.26545       -1.10686       -1.78558
C         -0.94043       -3.57148       -2.70002
C          4.43690        0.70743       -0.72567
C          3.92258       -0.52691       -0.24711
C          2.59111       -0.57677        0.12925
C          1.80757        0.54762        0.11711
C          2.33283        1.76699       -0.21943
C          3.65707        1.88949       -0.60877
O          5.68760        0.74282       -1.39402
C          4.74773       -1.81875       -0.12246
H          2.14136       -1.51222        0.41736
H          1.68538        2.62752       -0.19935
C          4.19146        3.30187       -0.89967
C         -0.27019       -4.91136        2.99837
C         -2.19778       -3.38888        3.47975
C         -2.54950       -5.35577        2.01407
C          0.44762       -4.04218       -3.16081
C         -1.96790       -4.70661       -2.85830
C         -1.40088       -2.41628       -3.61904
C          0.03815       -6.05620       -0.30394
H         -0.51681       -5.50866        3.87579
H          0.22231       -5.56020        2.27803
H          0.44598       -4.14729        3.30009
H         -2.57832       -4.00283        4.29574
H         -1.49630       -2.67886        3.91510
H         -3.03636       -2.83230        3.06288
H         -2.87913       -5.91166        2.89146
H         -3.42641       -4.91060        1.54516
H         -2.12339       -6.06983        1.31375
H          0.80805       -4.86583       -2.54898
H          0.42211       -4.37786       -4.19716
H          1.17292       -3.23217       -3.08612
H         -2.07334       -4.99694       -3.90331
H         -1.67208       -5.59099       -2.29974
H         -2.94514       -4.39268       -2.49304
H         -1.58856       -2.77708       -4.62996
H         -2.32183       -1.96834       -3.24686
H         -0.64713       -1.63413       -3.69452
H          0.85877       -5.36572       -0.10458
H          0.00664       -6.81773        0.47514
H          0.20609       -6.55319       -1.25921
C          5.57019        0.51156       -2.78820
C          4.30930       -2.81096       -1.21316
C          6.26046       -1.56258       -0.23502
C          4.49927       -2.45282        1.26434
C          3.75860        4.25864        0.23322
C          5.72814        3.34684       -0.96169
C          3.60723        3.80242       -2.23133
H          4.86652       -3.74433       -1.13749
H          3.24898       -3.04563       -1.12322
H          4.47450       -2.40104       -2.20768
H          6.82833       -2.47318       -0.04554
H          6.52840       -1.20907       -1.22770
H          6.57685       -0.80824        0.48453
H          5.12753       -3.33159        1.40774
H          4.72858       -1.74244        2.05813
H          3.46507       -2.77102        1.38545
H          4.18793        5.24987        0.08951
H          2.67714        4.37716        0.27274
H          4.09272        3.88467        1.20059
H          6.08716        4.36991       -1.07116
H          6.16177        2.92917       -0.05374
H          6.10593        2.77437       -1.80542
H          2.51820        3.81356       -2.19915
H          3.90628        3.16133       -3.05815
H          3.94749        4.81408       -2.45063
H          4.93170        1.26865       -3.24016
H          6.55932        0.55440       -3.24463
H          5.13180       -0.46840       -2.96933
