111
-148.55487205
P         -2.59438        2.00456        0.81506
P          0.17302        0.43355        0.48284
C         -1.48634        1.78918        2.23685
C         -0.27416        1.15005        2.07837
C         -3.48674        3.62465        0.85087
C         -2.91225        4.59157       -0.16129
C         -1.86101        2.25211        3.48187
H         -2.81833        2.73111        3.60649
C         -1.01477        2.08296        4.56425
H         -1.30720        2.44493        5.53641
C          0.20110        1.44753        4.40133
H          0.85839        1.31272        5.24453
C          0.56973        0.97434        3.15495
H          1.50692        0.45844        3.01454
Pd        -1.27388        1.46421       -0.98561
Cl        -2.94218        2.09144       -2.35734
Cl        -0.04305        0.76487       -2.73796
C         -4.94818        3.21380        0.58963
C         -4.02638        0.83392        0.80320
H         -2.99092        4.18710       -1.17145
H         -3.44237        5.54675       -0.14683
H         -1.85465        4.78666        0.03183
H         -5.14724        3.28841       -0.48841
H         -5.63862        3.92542        1.06753
H         -4.07513        0.42430       -0.21476
C         -5.22893        1.75968        1.06629
C         -3.84645       -0.27247        1.81995
H         -3.37759        4.02150        1.86802
H         -5.44356        1.76270        2.14386
H         -6.13398        1.35693        0.58653
H         -2.95718       -0.86749        1.60273
H         -3.72794        0.13944        2.82386
H         -4.70691       -0.94537        1.83541
C         -1.22371       -3.89954        0.28848
C         -1.01502       -3.28610        1.55060
C         -0.56219       -1.97758        1.57861
C         -0.38960       -1.26610        0.42074
C         -0.69166       -1.82187       -0.79379
C         -1.14957       -3.12267       -0.89540
O         -1.47041       -5.29604        0.21093
C         -1.25243       -4.02730        2.87554
H         -0.33785       -1.49224        2.51193
H         -0.55918       -1.21493       -1.67201
C         -1.53845       -3.66460       -2.27940
C          4.55638        0.80285       -0.69187
C          3.82040       -0.35865       -1.03800
C          2.48897       -0.42372       -0.66511
C          1.90868        0.57138        0.07658
C          2.64054        1.65135        0.49604
C          3.98075        1.77542        0.16621
O          5.85259        1.01041       -1.23407
C          4.42300       -1.52151       -1.84154
H          1.87622       -1.25502       -0.96665
H          2.14438        2.40484        1.08295
C          4.77995        2.96683        0.71765
C         -1.63134       -3.03558        3.99927
C         -2.41707       -5.02579        2.74660
C          0.03245       -4.76268        3.28477
C         -2.10015       -2.52937       -3.16714
C         -0.29392       -4.25212       -2.96194
C         -2.64109       -4.73301       -2.16967
C         -0.29508       -6.08242        0.06109
H         -1.91739       -3.56936        4.90526
H         -0.79825       -2.38524        4.26184
H         -2.47320       -2.41210        3.69990
H         -2.62864       -5.50673        3.70127
H         -3.32217       -4.51851        2.41409
H         -2.18972       -5.80872        2.02714
H          0.85812       -4.06074        3.39948
H         -0.10131       -5.28486        4.23183
H          0.32236       -5.49559        2.53581
H         -1.33136       -1.80626       -3.43487
H         -2.50055       -2.92837       -4.09867
H         -2.90408       -1.99960       -2.65674
H          0.47302       -3.48808       -3.08680
H          0.13569       -5.05865       -2.37222
H         -0.53898       -4.64760       -3.94727
H         -3.51043       -4.33416       -1.64794
H         -2.96145       -5.06846       -3.15572
H         -2.29569       -5.60592       -1.62176
H          0.59283       -5.44947        0.09015
H         -0.24453       -6.81757        0.86421
H         -0.32861       -6.61682       -0.88806
C          5.85545        1.71046       -2.47199
C          5.92448       -1.68483       -1.54462
C          3.74157       -2.85710       -1.46273
C          4.20147       -1.26715       -3.34035
C          4.22544        3.40521        2.09243
C          6.25818        2.59263        0.93079
C          4.66855        4.14948       -0.25622
H          6.33574       -2.54799       -2.06740
H          6.48907       -0.81075       -1.85898
H          6.09134       -1.82354       -0.47697
H          4.25070       -3.69816       -1.93284
H          3.76465       -3.01213       -0.38437
H          2.70396       -2.88922       -1.79123
H          4.68295       -0.34575       -3.65908
H          4.60480       -2.08321       -3.93929
H          3.13814       -1.17814       -3.56210
H          4.17343        2.55901        2.77709
H          4.86597        4.16229        2.54430
H          3.23031        3.83900        2.00688
H          6.74582        2.34973       -0.00999
H          6.80952        3.41594        1.38430
H          6.34397        1.72571        1.58506
H          3.62721        4.44111       -0.39062
H          5.06892        3.89384       -1.23427
H          5.21646        5.01477        0.11597
H          6.30599        1.08741       -3.24437
H          4.83714        1.97117       -2.76331
H          6.45074        2.61846       -2.37703
