72
-108.39868009
Cl        -1.94484        0.08362        2.80870
Cl         0.88322       -1.31121        2.67325
P          1.23133       -0.96921       -0.30432
P         -2.22754        0.18125       -0.38431
C         -3.39994       -1.30802       -0.31672
C         -4.13874       -1.31119        1.01819
C         -4.41347       -1.26132       -1.46858
C         -3.14003        1.83183       -0.09791
C         -4.49819        1.80828       -0.79090
C         -1.42974        0.38616       -2.07819
C         -1.31881       -0.85969       -2.93951
C          1.15120        0.36791       -1.53644
C         -0.06437        1.04946       -1.98801
C          0.37508        2.20067       -2.77942
C          1.82361        2.18570       -2.85984
C          2.30318        1.03729       -2.11474
C         -2.55633       -2.57761       -0.40545
H         -3.44009       -1.33327        1.85365
H         -4.77725       -0.43674        1.12822
H         -3.97998       -0.86451       -2.38387
H         -5.27505       -0.64219       -1.22352
C         -3.32353        2.09629        1.39114
H         -4.95045        2.80139       -0.78054
H         -5.19192        1.13999       -0.28419
H         -2.11100        1.07922       -2.58530
H         -0.61939       -1.56433       -2.49878
H         -0.92436       -0.61287       -3.92718
H         -2.26672       -1.37175       -3.09064
H         -0.28320        2.87457       -3.33080
H          2.44335        2.89130       -3.41783
Pd        -0.53127       -0.43124        1.14948
H          3.34412        0.75271       -1.94587
C         -2.30072        2.95464       -0.70374
H         -4.40460        1.49996       -1.83254
H         -3.88547        1.29990        1.87572
H         -2.36164        2.17933        1.89473
H         -3.86349        3.02985        1.55665
H         -2.67704        3.93227       -0.39734
H         -1.26683        2.87720       -0.38146
H         -2.31780        2.93201       -1.79303
H         -4.77769       -2.19192        1.10094
H         -4.80007       -2.25877       -1.68424
H         -1.85018       -2.63782        0.42238
H         -3.18887       -3.46556       -0.35475
H         -1.99485       -2.63352       -1.33469
C          2.93478       -1.04433        0.31013
C          3.43429       -2.07658        1.06428
C          4.76703       -1.77386        1.34314
C          5.02809       -0.56697        0.74275
O          3.91247       -0.10849        0.10368
H          2.88898       -2.94943        1.38436
H          5.45595       -2.37036        1.91861
H          5.97495       -0.04168        0.76401
C          0.82729       -2.61071       -0.92682
C          0.55049       -3.64507       -0.06847
C          0.28254       -4.76760       -0.85310
C          0.40939       -4.36895       -2.16159
O          0.74185       -3.04534       -2.22161
H          0.53901       -3.58020        1.00821
H          0.02732       -5.75357       -0.50069
H          0.26890       -4.99920       -3.03101
Fe         1.23302        2.23655       -0.90666
C          2.89434        2.65603        0.26887
C          1.88559        1.94289        1.02490
C          0.67304        2.73316        1.01800
C          0.91810        3.92805        0.23118
C          2.28804        3.87023       -0.24533
H          3.92091        2.32179        0.10527
H          2.02500        0.99978        1.55776
H         -0.23222        2.49428        1.57790
H          0.21448        4.74649        0.06281
H          2.79065        4.63211       -0.84553
