105
-153.07024181
Cl         0.00593        1.85618        3.03147
Pd        -0.64611        1.09064        1.00897
P         -1.24337        0.49042       -1.15998
N         -0.94945       -1.07230       -1.90354
C          0.07987       -1.97640       -1.62346
C          0.32457       -2.47752       -0.31687
C          1.35015       -3.42535       -0.12205
C          1.57107       -3.98648        1.26293
C          2.45692       -5.24106        1.31178
C          3.67819       -5.08575        0.40137
C          3.24254       -4.85677       -1.05348
C          2.12113       -3.85929       -1.20386
C          1.84132       -3.37814       -2.47633
C          0.83923       -2.46774       -2.68554
H          0.63879       -2.10320       -3.67789
H          2.43038       -3.72880       -3.30690
H          4.09589       -4.52265       -1.65753
H          4.27809       -4.23246        0.74171
H          2.76628       -5.46123        2.34330
H          2.01555       -3.20138        1.88520
C         -0.61538       -2.19277        0.79384
C         -0.13988       -1.61166        2.00382
C         -1.01509       -1.52929        3.09207
C         -2.31286       -1.95798        2.98873
C         -2.80009       -2.51375        1.81219
C         -4.23500       -2.98661        1.79499
C         -4.74270       -3.45365        0.42019
C         -3.65465       -4.21835       -0.33826
C         -2.41860       -3.33162       -0.54441
C         -1.94616       -2.64793        0.71495
H         -1.59545       -3.92511       -0.96152
H         -4.03530       -4.59186       -1.29948
H         -5.05010       -2.58432       -0.17388
H         -4.87279       -2.18063        2.17975
H         -2.97534       -1.86674        3.83288
H         -0.66529       -1.08041        4.00514
N          1.13447       -1.03515        2.11112
P          1.54335        0.17801        0.89874
C          2.65103       -0.39623       -0.38008
C          2.49552        0.08304       -1.65597
C          3.38862       -0.29134       -2.64277
C          4.44641       -1.14193       -2.34929
C          4.60706       -1.58405       -1.04244
C          3.71019       -1.20937       -0.05794
H          3.83040       -1.54308        0.96042
H          5.43793       -2.22451       -0.80082
C          5.41195       -1.54275       -3.40906
H          3.26626        0.07366       -3.64811
H          1.67429        0.74413       -1.87071
C          2.38277        1.60588        1.59479
C          3.18361        1.47770        2.70388
C          3.83336        2.58868        3.21050
C          3.68375        3.83128        2.60884
C          2.88750        3.93388        1.47600
C          2.23910        2.82245        0.96968
H          1.61657        2.89921        0.09166
H          2.77660        4.88972        0.99315
C          4.39851        5.02305        3.14378
H          4.46224        2.49673        4.07951
H          3.30344        0.51132        3.16594
H          1.32413       -0.58663        2.99803
H         -1.22807       -0.95900       -2.86970
C         -0.51392        1.82844       -2.10626
C         -0.54008        3.09868       -1.58018
C          0.05377        4.14151       -2.26544
C          0.67523        3.91832       -3.48661
C          0.66407        2.63524       -4.01738
C          0.06966        1.59384       -3.32883
H          0.07788        0.59499       -3.73234
H          1.12862        2.45593       -4.97197
C          1.30180        5.04291       -4.23487
H          0.03579        5.13697       -1.85571
H         -1.04104        3.26814       -0.63987
C         -3.02491        0.70416       -1.18355
C         -3.60910        1.49956       -2.14052
C         -4.98215        1.66597       -2.15193
C         -5.77720        1.04288       -1.19951
C         -5.16893        0.23494       -0.24900
C         -3.79659        0.06589       -0.24472
H         -3.31821       -0.55244        0.49592
H         -5.77666       -0.25483        0.49239
C         -7.25708        1.20653       -1.21963
H         -5.44480        2.28624       -2.90047
H         -2.98930        1.99103       -2.87318
Cl        -2.48637        2.37645        1.19321
H          2.92432       -5.80758       -1.49745
H          1.87261       -6.11158        0.98819
H          4.33866       -5.96089        0.48055
H          0.59470       -4.20095        1.71554
H         -3.37058       -5.11023        0.23425
H         -2.63913       -2.56396       -1.29491
H         -4.33441       -3.80504        2.51809
H         -5.64742       -4.06872        0.52651
H          6.22845       -0.82310       -3.48192
H          5.84348       -2.52230       -3.19817
H          4.92441       -1.59972       -4.38336
H          5.39141        5.11077        2.70062
H          3.85038        5.94095        2.92690
H          4.51700        4.95730        4.22621
H          0.57862        5.51571       -4.90074
H          1.68132        5.80578       -3.55361
H          2.13972        4.69435       -4.84029
H         -7.54023        2.17819       -1.62670
H         -7.72401        0.43489       -1.83324
H         -7.67412        1.13562       -0.21408
