111
-148.55455687
P         -1.58529        2.71575        1.00190
P         -0.50570       -0.21044        0.47687
C         -1.21003        1.62572        2.40442
C         -0.81544        0.32484        2.17218
C         -0.41489        4.14566        0.94082
C          0.47821        4.05741       -0.27866
C         -1.29233        2.09796        3.69872
H         -1.56363        3.12630        3.87317
C         -1.00341        1.25631        4.75906
H         -1.07151        1.62360        5.77004
C         -0.62212       -0.05083        4.52356
H         -0.39164       -0.70399        5.34906
C         -0.51721       -0.51504        3.22472
H         -0.18551       -1.52102        3.02148
Pd        -1.69978        1.29718       -0.82050
Cl        -2.67443        2.98957       -1.91788
Cl        -1.57458       -0.24564       -2.45073
C         -1.34977        5.37153        0.95323
C         -3.19369        3.61746        1.18311
H          1.08477        3.14975       -0.26533
H         -0.11893        4.03658       -1.19253
H          1.15444        4.91311       -0.34196
H         -1.48326        5.72127       -0.07967
H         -0.87648        6.20890        1.48792
H         -3.64349        3.62680        0.18163
C         -2.74049        5.03790        1.56515
C         -4.13140        2.95470        2.16996
H          0.17313        4.09786        1.86653
H         -2.69001        5.11296        2.66005
H         -3.49474        5.77665        1.25358
H         -5.08381        3.48601        2.23207
H         -4.33833        1.92059        1.88520
H         -3.70213        2.93807        3.17196
C         -0.62965       -4.73172       -0.04175
C         -1.78164       -3.96332       -0.35067
C         -1.73302       -2.59365       -0.14752
C         -0.57758       -1.98412        0.26432
C          0.56922       -2.70846        0.46167
C          0.58852       -4.08127        0.28071
O         -0.70383       -6.15007       -0.02601
C         -3.07177       -4.59467       -0.89760
H         -2.59809       -1.97748       -0.32181
H          1.45920       -2.17904        0.75671
C          1.91636       -4.83722        0.44542
C          3.61100        1.31491       -0.74452
C          3.19402        1.42171        0.60708
C          1.95121        0.91916        0.95219
C          1.11587        0.39146        0.00327
C          1.47035        0.38499       -1.31916
C          2.69439        0.87781       -1.73454
O          4.95327        1.61481       -1.09851
C          4.07589        2.05308        1.69504
H          1.61739        0.93342        1.97442
H          0.75513        0.00729       -2.02840
C          3.00404        0.92816       -3.23839
C         -3.98319       -4.99005        0.27368
C         -3.82903       -3.59138       -1.79764
C         -2.75952       -5.82709       -1.76605
C          1.97105       -6.06882       -0.47659
C          3.10974       -3.93254        0.05897
C          2.07898       -5.26560        1.91150
C         -1.06791       -6.69725        1.23489
H         -4.23324       -4.11876        0.87853
H         -4.91308       -5.42947       -0.08642
H         -3.49830       -5.71532        0.92272
H         -4.23446       -2.76016       -1.22290
H         -3.17077       -3.18729       -2.56635
H         -4.66880       -4.07508       -2.29591
H         -2.29633       -6.61767       -1.18083
H         -3.66761       -6.23455       -2.20965
H         -2.07602       -5.56419       -2.57270
H          1.20707       -6.79596       -0.21290
H          1.81146       -5.77819       -1.51439
H          2.93772       -6.56719       -0.40828
H          2.96648       -3.50416       -0.93283
H          3.24523       -3.11705        0.76794
H          4.03881       -4.50198        0.04647
H          1.26867       -5.92069        2.22261
H          3.01835       -5.79725        2.06116
H          2.07388       -4.39690        2.56952
H         -1.23674       -5.90111        1.96107
H         -1.97609       -7.29005        1.12707
H         -0.27397       -7.35280        1.59220
C          5.82499        0.49207       -1.05962
C          4.97338        0.97037        2.31256
C          4.93663        3.19026        1.11556
C          3.20710        2.67151        2.81409
C          1.70795        1.15431       -4.05112
C          3.94985        2.09586       -3.57239
C          3.63135       -0.40519       -3.67193
H          5.62296        0.52342        1.56383
H          5.60266        1.38641        3.09893
H          4.37114        0.17308        2.74770
H          4.30857        3.94034        0.63589
H          5.51515        3.68152        1.89750
H          5.63773        2.81741        0.37282
H          2.67521        1.90918        3.38144
H          3.82452        3.22380        3.52211
H          2.47584        3.36379        2.39849
H          1.04446        0.29232       -4.00290
H          1.16537        2.02416       -3.68161
H          1.93513        1.32359       -5.10328
H          4.11631        2.17054       -4.64670
H          3.52941        3.04006       -3.22767
H          4.91954        1.96992       -3.09748
H          4.55794       -0.59748       -3.13608
H          3.85266       -0.40407       -4.73888
H          2.95318       -1.23366       -3.46835
H          5.28684       -0.39661       -0.72713
H          6.24013        0.31543       -2.05165
H          6.64967        0.69473       -0.37644
