111
-148.55181077
P         -2.54495        2.09479        0.81168
P          0.13514        0.42930        0.51183
C         -1.47797        1.82438        2.25647
C         -0.29517        1.13240        2.11231
C         -3.45114        3.70327        0.96127
C         -3.26979        4.55861       -0.27297
C         -1.84904        2.29473        3.50034
H         -2.78321        2.81938        3.61531
C         -1.02794        2.07735        4.59344
H         -1.31778        2.44493        5.56427
C          0.15989        1.38785        4.44303
H          0.79777        1.21654        5.29446
C          0.52550        0.90936        3.19778
H          1.44171        0.35545        3.06404
Pd        -1.24768        1.49376       -1.00772
Cl        -2.86839        2.23555       -2.36388
Cl         0.15250        0.83820       -2.64089
C         -4.90801        3.25637        1.20423
C         -3.96881        0.91539        0.73471
H         -2.21276        4.74670       -0.47513
H         -3.68929        4.06172       -1.14870
H         -3.77294        5.52308       -0.17101
H         -5.59600        4.00248        0.78040
H         -5.11959        3.23880        2.28350
H         -3.83291        0.31170       -0.17335
C         -5.18864        1.85021        0.60290
C         -3.99742        0.02762        1.95952
H         -3.04103        4.21852        1.84012
H         -6.06032        1.38758        1.08831
H         -5.46181        1.95772       -0.45722
H         -4.82967       -0.67950        1.92457
H         -3.07152       -0.54401        2.05271
H         -4.10720        0.62549        2.86624
C         -1.23494       -3.90343        0.19065
C         -1.14575       -3.29612        1.47004
C         -0.71558       -1.98160        1.54467
C         -0.45424       -1.26016        0.40967
C         -0.64724       -1.80987       -0.82961
C         -1.07447       -3.11658       -0.97804
O         -1.44177       -5.30434        0.08222
C         -1.46807       -4.05562        2.76657
H         -0.56549       -1.50425        2.49673
H         -0.44053       -1.19649       -1.68916
C         -1.32134       -3.65788       -2.39430
C          4.53461        0.71249       -0.62603
C          3.82542       -0.49918       -0.82462
C          2.48988       -0.54010       -0.46450
C          1.87968        0.53278        0.13024
C          2.58556        1.67199        0.41517
C          3.92840        1.77790        0.08904
O          5.83337        0.87385       -1.17759
C          4.45768       -1.74479       -1.46472
H          1.89743       -1.41516       -0.66482
H          2.06574        2.48659        0.88941
C          4.69490        3.05085        0.48130
C         -0.19589       -4.74725        3.27918
C         -1.97639       -3.08760        3.85901
C         -2.58080       -5.09454        2.53687
C         -2.40551       -4.75045       -2.39241
C         -1.82223       -2.52911       -3.32534
C         -0.00584       -4.21402       -2.96056
C         -0.23948       -6.06255        0.03299
H         -0.39031       -5.28442        4.20715
H          0.18500       -5.46044        2.55215
H          0.58965       -4.01640        3.46997
H         -2.82106       -2.50289        3.49675
H         -2.30657       -3.63852        4.73940
H         -1.19721       -2.40090        4.18621
H         -2.85550       -5.58734        3.46916
H         -3.47197       -4.61834        2.12931
H         -2.26540       -5.86554        1.83819
H         -2.09379       -5.61881       -1.81774
H         -3.32851       -4.37355       -1.95308
H         -2.62454       -5.08705       -3.40542
H         -2.68204       -2.02047       -2.89013
H         -1.04786       -1.78776       -3.51603
H         -2.12446       -2.93035       -4.29228
H          0.38308       -5.01721       -2.33894
H         -0.14859       -4.60534       -3.96744
H          0.75344       -3.43366       -3.00692
H         -0.18373       -6.60219       -0.91218
H          0.62780       -5.40795        0.12894
H         -0.23553       -6.79235        0.84251
C          5.83743        1.40271       -2.49778
C          4.24399       -1.69342       -2.98528
C          5.95937       -1.83733       -1.13998
C          3.79893       -3.03299       -0.91824
C          4.11520        3.65729        1.77962
C          6.17868        2.74429        0.75493
C          4.56756        4.08818       -0.64454
H          3.18106       -1.65649       -3.22317
H          4.70943       -0.81156       -3.41902
H          4.66875       -2.57212       -3.46988
H          6.39183       -2.75265       -1.54329
H          6.50959       -1.00032       -1.56213
H          6.11967       -1.83239       -0.06238
H          4.32802       -3.91774       -1.27159
H          3.81662       -3.04527        0.17123
H          2.76466       -3.12931       -1.24492
H          3.11188        4.05232        1.62790
H          4.07387        2.90993        2.57162
H          4.73374        4.48303        2.13060
H          6.70626        3.63447        1.09657
H          6.27676        1.97651        1.52165
H          6.68209        2.38766       -0.14017
H          4.98598        3.71304       -1.57536
H          5.08994        5.00941       -0.38786
H          3.52128        4.33236       -0.82675
H          6.30716        0.69111       -3.17655
H          4.81780        1.60287       -2.82966
H          6.41539        2.32648       -2.51971
