45
-71.81244342
C          1.48847        1.03335        2.55384
P          1.31106        0.77542        0.75821
P         -1.35572        0.15776       -0.92867
C         -1.35656       -0.41166       -2.65975
Cl         1.48439       -2.20995        1.73177
H          2.07027        1.93038        2.74536
H         -1.67176       -1.45015       -2.70695
Cl        -0.94579       -3.00659       -0.40638
C          0.37925        2.11464       -0.01301
C         -0.72288        1.84180       -0.79424
C         -1.37532        2.86443       -1.45264
C         -0.93305        4.16801       -1.31167
C          0.15956        4.44362       -0.51330
C          0.81933        3.41442        0.13503
H         -2.22877        2.63763       -2.07180
H         -1.44397        4.96773       -1.82219
H          0.50357        5.45860       -0.40069
H          1.68273        3.61561        0.74919
Pd         0.09687       -1.15424        0.31223
H         -0.35688       -0.32614       -3.07627
H          1.99398        0.18217        3.00096
H         -2.03994        0.19277       -3.24924
C         -5.50893       -0.21153        0.92138
C         -4.95627        1.03841        0.72518
C         -3.69559        1.15557        0.16869
C         -2.99363        0.02647       -0.19094
C         -3.54053       -1.21948        0.01458
C         -4.80095       -1.34280        0.56859
H         -6.49133       -0.30434        1.35494
H         -5.50566        1.92209        1.00568
H         -3.25383        2.12650        0.02191
H         -2.96243       -2.09344       -0.23448
H         -5.22548       -2.32003        0.73023
C          5.37116        0.29530       -1.26358
C          4.92061       -0.66199       -0.37685
C          3.68723       -0.51115        0.22858
C          2.91188        0.59179       -0.04650
C          3.35682        1.54390       -0.93660
C          4.58933        1.39757       -1.54681
H          6.33184        0.17987       -1.73841
H          5.52485       -1.52782       -0.16104
H          3.30898       -1.26371        0.89952
H          2.73715        2.39675       -1.15704
H          4.93795        2.14297       -2.24267
H          0.50818        1.14146        3.00925
