45
-71.81543607
C          2.35146        1.20197        2.42457
P          1.53074        0.85387        0.83319
P         -1.02047        0.20065       -0.89270
C         -0.40898       -0.27746       -2.54415
Cl         1.49179       -1.93921        2.23565
H          2.88631        0.31918        2.76298
H          0.65274       -0.06209       -2.62131
Cl        -1.24499       -2.72232        0.35020
C          0.48501        2.20934        0.26008
C         -0.61530        1.91768       -0.51626
C         -1.40934        2.93300       -1.00797
C         -1.09499        4.24965       -0.72072
C          0.01212        4.54302        0.05204
C          0.80699        3.52126        0.54119
H         -2.26929        2.68796       -1.61055
H         -1.71342        5.04557       -1.10179
H          0.25952        5.56855        0.27184
H          1.68017        3.73942        1.13417
Pd         0.12294       -0.99059        0.73056
H         -0.93833        0.28003       -3.31156
H          1.61007        1.47253        3.17093
H         -0.56249       -1.34081       -2.70434
C         -5.45702       -0.56119       -0.23160
C         -4.84210       -1.07325       -1.35706
C         -3.49562       -0.84194       -1.57384
C         -2.77579       -0.09856       -0.66645
C         -3.38275        0.40911        0.45987
C         -4.72959        0.17964        0.67866
H         -6.50557       -0.74342       -0.06143
H         -5.40874       -1.65680       -2.06398
H         -3.00342       -1.24588       -2.44345
H         -2.79870        0.98131        1.16385
H         -5.20768        0.57578        1.55941
C          4.42557       -0.36760       -2.44957
C          4.23946       -1.18565       -1.35227
C          3.36735       -0.80232       -0.35030
C          2.69591        0.39404       -0.44927
C          2.86990        1.20891       -1.54396
C          3.74093        0.82818       -2.54871
H          5.10376       -0.66509       -3.23263
H          4.76599       -2.12300       -1.27922
H          3.18003       -1.43883        0.49979
H          2.32144        2.13466       -1.61001
H          3.88287        1.46310       -3.40778
H          3.05786        2.01916        2.31025
