87
-129.18098799
P         -1.67104       -0.44810        0.11068
P          1.60799        0.25549       -0.14043
C         -1.43907        0.80271       -1.17446
C          1.32517       -0.83109       -1.54366
C         -0.52374        0.69866       -2.21995
C         -0.32482        1.81371       -3.05660
C         -1.06176        2.96599       -2.84244
C         -1.96262        3.05110       -1.80354
C         -2.13571        1.96961       -0.96176
C          2.14784       -1.90973       -1.75767
C          1.94052       -2.73116       -2.84829
C          0.90638       -2.46304       -3.72086
C          0.06781       -1.37794       -3.52527
C          0.28980       -0.53075       -2.42126
Cl         1.33134        1.89429        2.64151
Cl        -1.72824        1.44934        2.71187
H         -2.51297        3.96206       -1.63462
H         -2.79423        2.04186       -0.10926
H          2.96219       -2.10282       -1.07957
H          2.58316       -3.58006       -3.01483
H         -0.90663        3.81222       -3.49011
H          0.74067       -3.10302       -4.57080
C         -0.39909       -4.73143       -0.69771
C         -1.25721       -4.10434       -1.59051
C         -1.63955       -2.79223       -1.33363
C         -1.16823       -2.13705       -0.22082
C         -0.35094       -2.77856        0.68031
C          0.04577       -4.07965        0.43562
H         -0.08869       -5.74337       -0.89514
C         -1.73197       -4.81607       -2.80824
H         -2.29999       -2.27734       -2.01124
H         -0.05166       -2.26797        1.58212
H          0.69183       -4.58774        1.13277
C         -5.98204       -0.62748        1.53891
C         -5.70739       -0.31861        0.22111
C         -4.39640       -0.25192       -0.21265
C         -3.37372       -0.49023        0.67589
C         -3.64381       -0.81487        1.98429
C         -4.95558       -0.87385        2.44058
H         -7.00234       -0.68249        1.87841
H         -6.51328       -0.13152       -0.46952
H         -4.16479       -0.02042       -1.24036
H         -2.82923       -1.01523        2.66079
C         -5.24640       -1.22922        3.85619
C          4.85451       -1.37455        2.61483
C          4.91283       -0.06774        2.17298
C          3.93241        0.41905        1.32897
C          2.90106       -0.40037        0.93353
C          2.83955       -1.70007        1.37909
C          3.82051       -2.21136        2.21869
H          5.61346       -1.75447        3.27733
H          5.71786        0.57482        2.48987
H          3.95909        1.44125        0.98765
H          2.02688       -2.33130        1.06826
C          3.73284       -3.61447        2.70734
C          2.86956        4.28721       -1.81995
C          3.55051        3.14021       -2.17804
C          3.16918        1.91933       -1.65261
C          2.11858        1.85925       -0.76732
C          1.44148        3.00058       -0.40563
C          1.80045        4.23284       -0.93649
H          3.16457        5.23917       -2.22738
H          4.37498        3.19474       -2.86986
H          3.67868        1.01074       -1.93343
H          0.62125        2.93919        0.28892
C          1.07104        5.46622       -0.53560
Pd        -0.06480        0.56424        1.47309
C          0.67788        1.79161       -4.15814
C         -1.04171       -1.12518       -4.48534
H          1.25018        2.72018       -4.17978
H          1.38910        0.97409       -4.03607
H          0.19014        1.67469       -5.12657
H         -1.77370       -0.42898       -4.07413
H         -0.66153       -0.70405       -5.41680
H         -1.56719       -2.05048       -4.72573
H         -2.52596       -4.26010       -3.30877
H         -0.91702       -4.95100       -3.52070
H         -2.12510       -5.80174       -2.55515
H         -6.20753       -0.82404        4.17573
H         -5.27666       -2.31196        3.98575
H         -4.48118       -0.83078        4.52401
H          4.69867       -3.96965        3.06938
H          3.01611       -3.69479        3.52587
H          3.41022       -4.28603        1.91022
H          0.02444        5.24841       -0.31737
H          1.51625        5.90547        0.35810
H          1.09516        6.21460       -1.32897
