87
-129.18766730
P         -1.69735       -0.39814       -0.19346
P          1.65662        0.39041       -0.10972
C         -1.40920        0.90936       -1.40308
C          1.42828       -0.67271       -1.54190
C         -0.39938        0.82782       -2.35873
C         -0.17806        1.92984       -3.20724
C         -0.97836        3.05267       -3.08515
C         -1.97879        3.11201       -2.13973
C         -2.18625        2.03797       -1.29721
C          2.22625       -1.78431       -1.66194
C          2.06218       -2.64594       -2.72842
C          1.09049       -2.38716       -3.67135
C          0.27242       -1.27463       -3.56804
C          0.44500       -0.39124       -2.48436
Cl         1.18753        0.95249        3.01678
Cl        -1.39544       -0.95066        2.95698
H         -2.59116        3.99453       -2.05253
H         -2.96075        2.08194       -0.54965
H          2.98193       -1.97996       -0.91928
H          2.68699       -3.51932       -2.81919
H         -0.80567        3.89049       -3.73924
H          0.95488       -3.05884       -4.50200
C         -1.30233       -4.59486       -1.88671
C         -0.55320       -4.23446       -0.77493
C         -0.71169       -2.95548       -0.25659
C         -1.56679       -2.05926       -0.85536
C         -2.30335       -2.42221       -1.95821
C         -2.17364       -3.69843       -2.47426
H         -1.19651       -5.58724       -2.29061
C          0.38128       -5.19578       -0.12929
H         -0.15986       -2.66295        0.62024
H         -2.96366       -1.70291       -2.41659
H         -2.74667       -3.99007       -3.33909
C         -5.63961        0.26191        1.98799
C         -5.51221       -0.78916        1.10152
C         -4.31479       -0.99403        0.44229
C         -3.25667       -0.14545        0.66985
C         -3.38098        0.90103        1.55467
C         -4.57373        1.11616        2.23430
H         -6.57198        0.42457        2.50132
H         -6.34440       -1.45069        0.92460
H         -4.19948       -1.81522       -0.24578
H         -2.54006        1.55048        1.73505
C         -4.70422        2.25678        3.18125
C          5.14448       -1.06633        2.43031
C          5.21939        0.16252        1.80455
C          4.16591        0.60638        1.02773
C          3.04771       -0.18040        0.88263
C          2.96909       -1.40327        1.50871
C          4.02164       -1.86951        2.28658
H          5.95997       -1.40994        3.04368
H          6.09550        0.77820        1.92619
H          4.20612        1.56768        0.54239
H          2.08021       -2.00240        1.40104
C          3.91748       -3.17860        2.98652
C          2.02900        4.75690       -1.29249
C          2.85764        3.81523       -1.87084
C          2.75581        2.48677       -1.50122
C          1.82938        2.11629       -0.55521
C          1.01083        3.05250        0.03237
C          1.09959        4.39151       -0.32827
H          2.09664        5.78962       -1.58944
H          3.57646        4.11294       -2.61653
H          3.38147        1.73436       -1.95542
H          0.29213        2.74313        0.77241
C          0.18072        5.39707        0.27041
Pd        -0.05740       -0.01289        1.41301
C          0.89523        1.91231       -4.23985
C         -0.76642       -1.03454       -4.60785
H          1.42741        2.86426       -4.26354
H          1.62965        1.13139       -4.04000
H          0.47742        1.73720       -5.23193
H         -0.31633       -0.65800       -5.52717
H         -1.29696       -1.95701       -4.84789
H         -1.50707       -0.30772       -4.27254
H          0.70869       -5.96233       -0.83303
H          1.27159       -4.68528        0.24146
H         -0.09747       -5.69392        0.71485
H         -5.50465        2.08331        3.90181
H         -3.78041        2.40498        3.74247
H         -4.92606        3.18135        2.64641
H          3.35759       -3.89929        2.38852
H          4.90346       -3.60318        3.18047
H          3.40473       -3.06483        3.94262
H         -0.72842        5.49241       -0.32497
H         -0.10880        5.11061        1.28253
H          0.65295        6.37888        0.32579
