100
-131.98049689
C         -1.62626        3.79788       -1.46738
C         -2.35560        2.52532       -1.46878
C         -0.23578        3.50920       -1.52159
C         -0.03567        2.03781       -1.60449
C          1.13194        1.44227       -2.31120
C         -1.41383        1.44597       -1.56737
C         -1.82275        0.04396       -1.99189
C         -0.87221       -0.66644       -2.93288
Cl         1.00779       -0.44600        2.75147
Cl        -1.86034       -1.77189        2.36161
C          3.23362        0.39051       -3.83222
C          2.50999        1.46409       -4.31289
C          2.92598       -0.14691       -2.59073
C          1.48489        1.98643       -3.56519
C          1.88723        0.34870       -1.83827
H         -3.44032        2.42245       -1.53237
H          0.55998        4.25136       -1.61767
H          0.04110       -0.95195       -2.41187
H         -1.31083       -1.58178       -3.33767
H         -0.59616       -0.02963       -3.77690
H          4.04697       -0.01626       -4.41063
H          2.75171        1.89128       -5.27268
H          3.53488       -0.94780       -2.20614
H          0.91378        2.81734       -3.94216
H         -2.07612        4.79380       -1.46579
P          1.73755       -0.29727       -0.15187
H         -2.79896        0.12805       -2.48601
P         -2.13972       -0.99410       -0.51118
H         -3.44969       -3.00652       -0.35586
C         -1.65384       -3.72696       -1.28093
C         -2.71981       -2.65049       -1.08368
C         -1.22558       -4.33048        0.05954
H         -3.19513        0.78284        0.64549
C         -4.88489       -0.04554       -0.39123
C         -3.55967       -0.20418        0.37104
H         -4.64681        0.26074       -1.42438
C         -5.69257       -1.34466       -0.45369
H          3.58971       -1.81568       -0.39481
H          2.55534        0.80899        1.84904
C          3.54407        3.28462        1.14567
C          2.70428        2.30616        0.30511
C          2.86553        0.86237        0.80053
C          4.34949        0.46361        0.72778
C          5.22765        1.42903        1.55116
C          5.03179        2.88927        1.10015
H          3.19252        3.26450        2.18467
H          3.39911        4.31915        0.80422
H          3.03925        2.35544       -0.73828
H          1.64770        2.59224        0.27983
H          4.49569       -0.56803        1.06975
H          4.66772        0.47700       -0.32131
H          4.96421        1.33962        2.61248
H          6.28626        1.14054        1.48731
H          5.40759        3.00652        0.07589
H          5.63562        3.57215        1.71447
C          2.67275       -4.30383       -1.06056
C          1.90573       -2.96618       -1.03804
C          2.55520       -1.97482       -0.07041
C          2.59942       -2.57590        1.34271
C          3.38986       -3.89849        1.34936
C          2.77998       -4.90654        0.35519
H          3.67984       -4.13695       -1.46223
H          2.19469       -5.01243       -1.75140
H          0.88377       -3.14037       -0.69495
H          1.81443       -2.53578       -2.04415
H          3.00845       -1.85627        2.06357
H          1.57484       -2.76922        1.68025
H          4.43266       -3.69945        1.07290
H          3.42997       -4.32245        2.36249
H          1.78276       -5.20010        0.70454
H          3.36687       -5.83580        0.33688
H         -0.78612       -3.24419       -1.76014
C         -2.15401       -4.82728       -2.22212
H         -3.72892       -0.74608        1.30130
C         -5.73057        1.06454        0.24340
H         -3.25662       -2.47392       -2.01772
H         -0.85435       -3.57405        0.74996
H         -0.44842       -5.08433       -0.07134
H         -2.07082       -4.81867        0.54537
H         -1.39204       -5.59162       -2.38313
H         -3.03185       -5.32038       -1.80339
H         -2.43602       -4.42508       -3.19657
H         -5.20544       -2.11013       -1.05464
H         -5.84709       -1.75139        0.54619
H         -6.67752       -1.17477       -0.89183
H         -5.96768        0.82026        1.27932
H         -5.20728        2.02148        0.24238
H         -6.67409        1.20230       -0.28699
Fe        -1.07009        2.62275        0.11899
C         -2.44791        3.03018        1.63241
C         -1.61565        4.18744        1.36391
C         -0.22904        3.80668        1.55683
C         -0.20761        2.40828        1.93847
C         -1.57305        1.92925        1.98395
H         -3.53954        3.01310        1.63285
H         -1.97443        5.18853        1.11384
H          0.63540        4.47098        1.48253
H          0.66320        1.83128        2.24892
H         -1.87484        0.93458        2.32114
Pd        -0.30400       -0.90878        0.96857
