111
-148.55514792
P         -2.25247        2.54960       -0.21630
P         -0.17151        0.24996        0.46035
C         -1.79389        2.22930        1.50423
C         -0.92975        1.19707        1.79563
C         -1.91246        4.30335       -0.68882
C         -0.76613        4.36979       -1.67479
C         -2.31852        2.99896        2.52237
H         -2.98041        3.81583        2.28409
C         -1.98888        2.71776        3.83711
H         -2.39963        3.31628        4.63377
C         -1.13863        1.66832        4.12906
H         -0.88548        1.44624        5.15267
C         -0.60639        0.90591        3.10460
H          0.06220        0.08558        3.31509
Pd        -1.25201        0.90803       -1.49341
Cl        -2.60047        1.48604       -3.18568
Cl        -0.23454       -0.85737       -2.45093
C         -3.26395        4.78894       -1.24724
C         -4.08380        2.48744       -0.49326
H         -0.56010        5.39859       -1.97980
H          0.14938        3.95143       -1.24865
H         -0.99921        3.79749       -2.57517
H         -3.24930        4.68734       -2.34111
H         -3.39523        5.86423       -1.05310
H         -4.22601        1.94765       -1.43866
C         -4.45442        3.97086       -0.67117
C         -4.81037        1.78002        0.63098
H         -1.66427        4.83181        0.24101
H         -4.74671        4.38328        0.30425
H         -5.34459        4.06851       -1.31112
H         -4.67395        2.30502        1.57719
H         -5.88431        1.72400        0.43896
H         -4.43606        0.76287        0.76508
C         -0.99794       -4.21035        0.78940
C          0.33328       -3.73538        0.90918
C          0.55465       -2.37311        0.80102
C         -0.48817       -1.49736        0.65357
C         -1.78448       -1.93977        0.63854
C         -2.07688       -3.29025        0.74114
O         -1.24649       -5.60477        0.68325
C          1.53505       -4.67160        1.11087
H          1.55436       -1.97588        0.81278
H         -2.56888       -1.21050        0.52788
C         -3.54756       -3.73532        0.75372
C          4.29561        1.12387        0.08068
C          3.62815        0.35281       -0.90648
C          2.26733        0.14895       -0.76394
C          1.58460        0.60291        0.33335
C          2.25008        1.24301        1.34690
C          3.61258        1.48166        1.27341
O          5.60960        1.60148       -0.15953
C          4.32411       -0.29017       -2.11769
H          1.71192       -0.36763       -1.52655
H          1.69039        1.56395        2.20735
C          4.30295        2.09661        2.50290
C          2.66875       -3.94914        1.87474
C          1.14353       -5.90276        1.94786
C          2.07348       -5.10953       -0.25966
C         -4.44220       -2.64658        1.38914
C         -4.01734       -3.97080       -0.69000
C         -3.73495       -5.01339        1.59111
C         -1.24428       -6.09413       -0.65207
H          3.46595       -4.64581        2.13304
H          3.11855       -3.15790        1.27665
H          2.29507       -3.51075        2.79975
H          0.40008       -6.50984        1.43744
H          2.00889       -6.53589        2.14222
H          0.72435       -5.59752        2.90604
H          2.36867       -4.24363       -0.85142
H          2.94346       -5.75635       -0.14925
H          1.32051       -5.65314       -0.82463
H         -4.50259       -1.75924        0.76114
H         -5.46014       -3.01183        1.52331
H         -4.06057       -2.35187        2.36638
H         -3.91354       -3.06125       -1.28132
H         -3.43055       -4.74717       -1.17454
H         -5.06376       -4.27356       -0.71609
H         -3.36559       -4.86487        2.60524
H         -4.78669       -5.29233        1.65040
H         -3.19634       -5.85355        1.16028
H         -1.03562       -5.28473       -1.35294
H         -0.48655       -6.87060       -0.75558
H         -2.21424       -6.53437       -0.88245
C          5.62414        2.85918       -0.81409
C          5.85647       -0.29186       -1.98279
C          3.87968       -1.76503       -2.23759
C          3.92131        0.46388       -3.39584
C          3.92392        3.58250        2.61260
C          3.83366        1.35910        3.77692
C          5.83439        1.95941        2.44427
H          6.32249       -0.83632       -2.80374
H          6.25420        0.72013       -1.99185
H          6.15928       -0.76135       -1.04751
H          4.40816       -2.26547       -3.04849
H          4.09083       -2.30493       -1.31505
H          2.81411       -1.85232       -2.44292
H          2.84132        0.44040       -3.53814
H          4.22750        1.50737       -3.34890
H          4.38492        0.01654       -4.27460
H          4.38151        4.03712        3.49088
H          4.25409        4.13806        1.73689
H          2.84429        3.70389        2.69583
H          4.36945        1.72030        4.65439
H          2.77127        1.50698        3.96323
H          4.01506        0.28814        3.68966
H          6.29636        2.31278        3.36583
H          6.25108        2.53959        1.62435
H          6.12157        0.91889        2.29681
H          5.12201        3.60551       -0.20061
H          6.65694        3.16570       -0.98117
H          5.10981        2.78819       -1.77133
