111
-148.54962373
P         -2.64177        1.93340        0.20454
P          0.14785        0.42686        0.43081
C         -1.78642        1.84382        1.80331
C         -0.54654        1.24618        1.88083
C         -3.61284        3.50199        0.04270
C         -2.87068        4.57129       -0.72840
C         -2.36602        2.36886        2.94110
H         -3.34538        2.81415        2.88563
C         -1.69606        2.30409        4.15068
H         -2.14888        2.71526        5.03815
C         -0.45084        1.71051        4.22314
H          0.06918        1.65651        5.16541
C          0.12249        1.17317        3.08506
H          1.08299        0.68368        3.12892
Pd        -1.07183        1.26659       -1.35709
Cl        -2.18020        2.39319       -2.93958
Cl         0.53463        0.39420       -2.67088
C         -4.91931        3.01136       -0.60595
C         -3.99697        0.68889       -0.01849
H         -3.45256        5.49357       -0.79223
H         -1.91279        4.80566       -0.25845
H         -2.66369        4.24599       -1.74754
H         -4.80255        3.03880       -1.69832
H         -5.74556        3.70210       -0.37776
H         -3.78360        0.17387       -0.96482
C         -5.26073        1.56159       -0.15519
C         -4.03457       -0.29438        1.13127
H         -3.81336        3.84676        1.06470
H         -5.77354        1.59408        0.81580
H         -5.97557        1.09409       -0.84903
H         -3.10002       -0.85387        1.20409
H         -4.17926        0.22531        2.08028
H         -4.84947       -1.01301        1.01698
C         -1.43473       -3.84774        0.45819
C         -0.96979       -3.27757       -0.75406
C         -0.48948       -1.98105       -0.72327
C         -0.39151       -1.28482        0.45185
C         -0.73348       -1.87325        1.64124
C         -1.22424       -3.16745        1.68490
O         -2.14941       -5.07489        0.43832
C         -1.02836       -4.01671       -2.09945
H         -0.20244       -1.48057       -1.63025
H         -0.63854       -1.29311        2.54194
C         -1.56564       -3.78907        3.04791
C          4.65868        0.85297       -0.02940
C          4.01445       -0.34368       -0.43382
C          2.64172       -0.43291       -0.27707
C          1.92628        0.57797        0.30869
C          2.55703        1.69613        0.78874
C          3.93047        1.84317        0.67923
O          6.01895        1.07849       -0.36978
C          4.76540       -1.51620       -1.08323
H          2.10398       -1.29304       -0.63536
H          1.95572        2.46240        1.24675
C          4.60282        3.07588        1.30419
C         -0.86189       -5.53484       -1.90757
C         -2.36824       -3.71073       -2.78597
C          0.11772       -3.55226       -3.02743
C         -1.37419       -5.31639        3.02597
C         -0.63214       -3.23471        4.14827
C         -3.01618       -3.44117        3.41611
C         -3.55507       -4.92155        0.28431
H         -0.84111       -6.05116       -2.86697
H          0.06739       -5.75533       -1.38331
H         -1.67957       -5.95377       -1.32655
H         -2.43572       -4.21132       -3.75146
H         -3.20736       -4.03932       -2.17744
H         -2.47935       -2.63940       -2.95251
H          0.15273       -4.15898       -3.93192
H         -0.01000       -2.51781       -3.34240
H          1.08137       -3.64209       -2.52754
H         -1.55296       -5.74804        4.01046
H         -2.05942       -5.79261        2.32930
H         -0.35925       -5.57135        2.72287
H         -0.82004       -2.18004        4.34402
H         -0.78404       -3.76557        5.08781
H          0.41336       -3.35034        3.86367
H         -3.28749       -3.86946        4.38067
H         -3.14989       -2.36138        3.47753
H         -3.71370       -3.81893        2.67237
H         -3.81693       -3.86546        0.20723
H         -3.88384       -5.44371       -0.61406
H         -4.06722       -5.36125        1.13999
C          6.19907        1.73730       -1.61723
C          6.20840       -1.61667       -0.55677
C          4.07224       -2.85764       -0.75162
C          4.76753       -1.32868       -2.60813
C          3.82606        3.54186        2.55695
C          6.03714        2.75395        1.76218
C          4.61870        4.22164        0.28131
H          6.21521       -1.70457        0.52912
H          6.71688       -2.48693       -0.97101
H          6.79086       -0.73852       -0.82343
H          3.09684       -2.93690       -1.22840
H          4.66869       -3.69888       -1.10398
H          3.93810       -2.96923        0.32398
H          3.74826       -1.28623       -2.99162
H          5.26445       -0.40343       -2.89021
H          5.28133       -2.15235       -3.10301
H          3.68739        2.71725        3.25575
H          4.36737        4.33265        3.07584
H          2.84638        3.94151        2.29961
H          6.48905        3.60835        2.26543
H          6.03910        1.91251        2.45426
H          6.67389        2.49429        0.92019
H          3.60529        4.47560       -0.02852
H          5.17776        3.94675       -0.60988
H          5.07698        5.11560        0.70353
H          6.75682        2.66129       -1.46547
H          6.77281        1.09947       -2.28934
H          5.23286        1.96491       -2.06938
