58
-89.86503589
P          1.74862        0.30372        0.66876
C          3.06376        1.42519        0.17054
C          4.01826        1.00075       -0.72576
C          5.01303        1.86891       -1.13811
C          5.04081        3.16168       -0.65434
C          4.07434        3.58857        0.23456
C          3.08038        2.71773        0.64425
H          2.31053        3.04751        1.32303
H          3.97211       -0.00429       -1.11352
C          2.27679       -1.40673        0.51158
C          1.38583       -2.35624        0.07054
C          1.77098       -3.68096       -0.01489
C          3.05107       -4.04781        0.34916
C          3.94050       -3.09459        0.80516
C          3.54869       -1.77035        0.89206
H          4.22794       -1.01817        1.26081
H          0.38304       -2.06292       -0.18442
C          1.33462        0.58045        2.43451
C          0.28347       -0.39181        2.95362
C         -1.14394        0.02202        2.63226
P         -1.65064       -0.16494        0.87162
C         -1.87464       -1.88536        0.40209
C         -1.79778       -2.90539        1.32379
C         -1.93934       -4.21711        0.90827
C         -2.15820       -4.49906       -0.42588
C         -2.23993       -3.47323       -1.34620
C         -2.09781       -2.16377       -0.92708
H         -2.15093       -1.34742       -1.62960
H         -1.62179       -2.67865        2.36218
C         -3.18961        0.74384        0.70463
C         -4.37364        0.06919        0.51393
C         -5.55393        0.77758        0.37851
C         -5.53779        2.15740        0.43444
C         -4.34660        2.82974        0.62522
C         -3.16761        2.11846        0.76122
H         -2.22803        2.62944        0.90242
H         -4.36875       -1.00779        0.46654
Pd        -0.11789        0.65806       -0.66908
Cl         1.26134        1.66017       -2.13406
Cl        -1.90422        0.93140       -2.01744
H         -1.86865       -0.55170        3.21481
H         -1.30068        1.06995        2.89522
H          0.48094       -1.39537        2.55407
H          0.38960       -0.49000        4.04547
H          2.27883        0.47280        2.97435
H          1.00879        1.61377        2.56221
H          5.75965        1.53805       -1.84121
H          4.08959        4.60070        0.60431
H          1.06902       -4.42352       -0.35681
H          4.93749       -3.38137        1.09677
H         -1.87537       -5.01859        1.62581
H         -2.41086       -3.69070       -2.38765
H         -6.48287        0.25307        0.22610
H         -4.33343        3.90656        0.66402
H          5.81320        3.84070       -0.97695
H          3.35455       -5.07992        0.28326
H         -2.26649       -5.52156       -0.74909
H         -6.45629        2.71085        0.32599
