105
-153.06486143
Cl         3.13747        1.08754       -1.54433
Pd         0.92092        0.86994       -1.25188
P         -1.42742        0.89154       -1.00040
N         -1.50851       -0.59699       -1.95414
C         -0.52150       -1.55995       -1.69054
C         -0.33215       -2.10424       -0.39091
C          0.68549       -3.04863       -0.16570
C          0.73328       -3.74412        1.17708
C          1.90118       -4.72792        1.37766
C          2.26694       -5.45480        0.07993
C          2.62133       -4.43930       -1.01506
C          1.53920       -3.41132       -1.20869
C          1.35317       -2.85951       -2.47043
C          0.33717       -1.97222       -2.71543
H          0.21347       -1.54882       -3.69658
H          2.01622       -3.14733       -3.26851
H          3.55481       -3.92536       -0.75920
H          3.09208       -6.16263        0.24323
H          2.78050       -4.18229        1.73579
H          0.74505       -2.97963        1.96293
C         -1.36404       -1.89696        0.65255
C         -1.13097       -1.07527        1.78069
C         -2.04639       -1.11307        2.83228
C         -3.17461       -1.88811        2.76838
C         -3.45137       -2.65885        1.64750
C         -4.73033       -3.45765        1.62738
C         -4.75440       -4.56079        0.55871
C         -4.23014       -4.02976       -0.77849
C         -2.78885       -3.51479       -0.63978
C         -2.54593       -2.66383        0.58429
H         -2.09288       -4.36169       -0.61927
H         -4.87615       -3.21154       -1.12103
H         -5.76626       -4.97498        0.44471
H         -5.56772       -2.76840        1.46547
H         -3.87624       -1.88424        3.58539
H         -1.87044       -0.49357        3.69460
N         -0.08960       -0.16294        1.88434
P          1.35145        0.31179        0.98217
C          2.66350       -0.84856        1.37078
C          2.69533       -1.36946        2.64314
C          3.71860       -2.22332        3.01619
C          4.71297       -2.56976        2.11132
C          4.67278       -2.02273        0.83664
C          3.65387       -1.16390        0.47216
H          3.64445       -0.71141       -0.50375
H          5.45202       -2.26531        0.13437
C          5.81951       -3.48354        2.50794
H          3.74652       -2.63022        4.01252
H          1.91610       -1.10858        3.34131
C          1.87885        1.88456        1.70130
C          2.33657        2.91149        0.90745
C          2.69133        4.12325        1.46849
C          2.61193        4.31624        2.83971
C          2.16548        3.26818        3.63164
C          1.80664        2.05812        3.06522
H          1.48634        1.24582        3.69618
H          2.09981        3.40573        4.69753
C          2.96997        5.62921        3.44460
H          3.04113        4.92650        0.84256
H          2.45526        2.75510       -0.15038
H         -0.03799        0.33296        2.76337
H         -1.54313       -0.28035       -2.91456
C         -1.63281        2.35583       -2.02031
C         -2.45944        2.32507       -3.11717
C         -2.61194        3.46090       -3.89175
C         -1.94628        4.63473       -3.56432
C         -1.11819        4.64459       -2.44993
C         -0.96729        3.50879       -1.67549
H         -0.32614        3.51458       -0.80759
H         -0.58820        5.54625       -2.19456
C         -2.08360        5.84776       -4.41703
H         -3.24814        3.44079       -4.76006
H         -2.98423        1.41620       -3.36349
C         -2.67289        1.01954        0.27364
C         -2.45007        1.82631        1.36401
C         -3.43356        1.95275        2.32864
C         -4.64106        1.27782        2.20004
C         -4.85430        0.49330        1.07405
C         -3.86934        0.36478        0.11148
H         -4.01965       -0.25120       -0.76098
H         -5.79261       -0.02176        0.95920
C         -5.70228        1.41767        3.23480
H         -3.26615        2.57449        3.19141
H         -1.50514        2.33754        1.46270
Cl         0.62128        1.14703       -3.46925
H          2.81592       -4.95070       -1.96634
H          1.66681       -5.45025        2.17211
H          1.41457       -6.06221       -0.24959
H         -0.21463       -4.27825        1.31384
H         -4.29610       -4.80266       -1.55724
H         -2.51835       -2.93451       -1.53014
H         -4.89479       -3.88961        2.62288
H         -4.12759       -5.39966        0.88669
H          6.14010       -4.09950        1.66648
H          6.68279       -2.91682        2.85924
H          5.50859       -4.15529        3.30933
H          3.75076        6.12794        2.86865
H          2.10241        6.28965        3.47803
H          3.33894        5.50607        4.46380
H         -1.96718        6.75854       -3.82799
H         -1.32658        5.85564       -5.20236
H         -3.06402        5.88532       -4.89390
H         -6.37605        2.23998        2.99041
H         -6.29679        0.50622        3.31313
H         -5.27087        1.61571        4.21703
