111
-148.55344584
P         -2.59062        2.03671        0.42102
P          0.11658        0.39194        0.39060
C         -1.65193        1.80547        1.95946
C         -0.45538        1.12315        1.93366
C         -3.55664        3.61467        0.50695
C         -3.35694        4.45379       -0.73547
C         -2.13162        2.30141        3.15563
H         -3.07802        2.81576        3.17937
C         -1.40332        2.12329        4.31919
H         -1.77738        2.51268        5.25199
C         -0.20019        1.44520        4.28727
H          0.36640        1.30502        5.19311
C          0.27224        0.93768        3.09056
H          1.20338        0.39446        3.05070
Pd        -1.07264        1.51774       -1.24760
Cl        -2.55281        2.21899       -2.77253
Cl         0.63625        1.18489       -2.66141
C         -5.00444        3.11436        0.69457
C         -3.96420        0.81197        0.23245
H         -2.30079        4.68248       -0.89601
H         -3.71623        3.92241       -1.61792
H         -3.90371        5.39781       -0.67543
H         -5.70338        3.83930        0.25212
H         -5.25325        3.07942        1.76545
H         -3.76112        0.25271       -0.69078
C         -5.21258        1.70445        0.07227
C         -4.01834       -0.12642        1.41921
H         -3.20401        4.16085        1.39188
H         -6.08089        1.20505        0.52616
H         -5.45835        1.81232       -0.99449
H         -3.08151       -0.67708        1.53436
H         -4.18645        0.43139        2.34235
H         -4.82701       -0.85433        1.31931
C         -1.39145       -3.91060        0.37849
C         -1.80197       -3.02455       -0.64920
C         -1.33016       -1.72399       -0.62077
C         -0.44079       -1.31165        0.33698
C          0.03679       -2.19187        1.27230
C         -0.38588       -3.51113        1.29528
O         -2.01005       -5.18272        0.50770
C         -2.76884       -3.44440       -1.76769
H         -1.66196       -1.01320       -1.35510
H          0.74502       -1.82851        1.99678
C          0.22437       -4.47332        2.32650
C          4.61026        0.70880       -0.26859
C          3.90995       -0.44851       -0.69431
C          2.54285       -0.50233       -0.48000
C          1.89020        0.50062        0.18701
C          2.57718        1.57639        0.68512
C          3.94737        1.68892        0.51405
O          5.96139        0.90594       -0.65930
C          4.59604       -1.61633       -1.41966
H          1.95938       -1.32682       -0.85221
H          2.02204        2.33749        1.20577
C          4.68493        2.87735        1.15080
C         -2.56823       -4.92389       -2.14250
C         -4.21548       -3.20471       -1.30944
C         -2.51781       -2.61585       -3.04884
C          1.68175       -4.07299        2.65039
C         -0.59851       -4.41748        3.62249
C          0.26784       -5.91384        1.78493
C         -3.15413       -5.18903        1.35241
H         -1.53388       -5.10978       -2.42985
H         -2.80570       -5.57994       -1.30870
H         -3.20862       -5.20711       -2.97745
H         -4.44700       -3.77782       -0.41520
H         -4.37774       -2.15232       -1.07945
H         -4.92349       -3.49232       -2.08621
H         -2.80111       -1.57254       -2.91718
H         -1.46724       -2.65306       -3.33568
H         -3.10569       -3.00257       -3.88086
H          2.27011       -3.98407        1.73788
H          1.73178       -3.12576        3.18516
H          2.15722       -4.82229        3.28294
H         -0.18233       -5.08298        4.37837
H         -0.60685       -3.40672        4.02994
H         -1.63061       -4.71137        3.44760
H          0.81398       -5.95292        0.84298
H          0.75971       -6.58310        2.49038
H         -0.73181       -6.30187        1.60673
H         -3.35208       -4.18633        1.73353
H         -4.01934       -5.54329        0.79225
H         -2.98913       -5.86950        2.18753
C          6.10983        1.60613       -1.88821
C          4.55345       -1.36390       -2.93441
C          6.05171       -1.78746       -0.94900
C          3.86858       -2.94703       -1.11975
C          4.68834        4.05892        0.16926
C          3.98087        3.31951        2.45414
C          6.12814        2.49755        1.52941
H          3.52413       -1.26948       -3.27965
H          5.07386       -0.44556       -3.19551
H          5.02006       -2.18308       -3.48081
H          6.65486       -0.91821       -1.19840
H          6.09207       -1.92295        0.13128
H          6.51552       -2.65518       -1.41743
H          4.42157       -3.79136       -1.53070
H          3.77315       -3.10103       -0.04551
H          2.87309       -2.97308       -1.56031
H          5.19551        3.80041       -0.75712
H          3.66980        4.35355       -0.08229
H          5.19363        4.92301        0.59990
H          3.00371        3.75766        2.25687
H          3.84802        2.47412        3.12883
H          4.56982        4.07406        2.97510
H          6.62852        3.31959        2.04064
H          6.71750        2.25054        0.64996
H          6.13606        1.63173        2.19067
H          5.13273        1.87023       -2.29492
H          6.69325        2.51208       -1.72486
H          6.64444        0.98146       -2.60357
