171
-217.84046547
P         -1.67080        0.75562        0.27395
P          1.45983       -0.26334       -0.34520
C         -0.91897        1.81186       -0.98364
C          0.51448       -0.95455       -1.71312
C         -0.32653        1.34113       -2.14958
C          0.31725        2.26038       -2.99939
C          0.32478        3.60430       -2.66608
C         -0.27309        4.05350       -1.50856
C         -0.88585        3.14878       -0.66358
C          0.61677       -2.28883       -2.01987
C         -0.11156       -2.81843       -3.06658
C         -0.94704       -2.00192       -3.80031
C         -1.07035       -0.65375       -3.50473
C         -0.30345       -0.11230       -2.45512
Cl         2.18694        1.14985        2.60108
Cl        -0.81157        0.62387        3.48723
C         -1.98715        0.20350       -4.30539
C          1.01044        1.82252       -4.24202
H         -0.25493        5.10155       -1.25802
H         -1.33513        3.48182        0.26053
H          1.27462       -2.91700       -1.44453
H         -0.02988       -3.86607       -3.30610
H          0.81912        4.30114       -3.32195
H         -1.50839       -2.41013       -4.62331
C         -3.05140       -3.44057       -0.73990
C         -3.68435       -2.35329       -1.32839
C         -3.21125       -1.08338       -1.02170
C         -2.15485       -0.92108       -0.15950
C         -1.55357       -2.00891        0.42995
C         -1.99538       -3.29612        0.15233
H         -3.40989       -4.42490       -0.97487
H         -3.67333       -0.20702       -1.44157
H         -0.74375       -1.85632        1.12099
C         -5.43119        2.88018        1.65923
C         -4.60596        2.30389        2.61847
C         -3.45452        1.66479        2.18320
C         -3.14475        1.60520        0.84966
C         -3.97053        2.17842       -0.08573
C         -5.13335        2.83199        0.30168
H         -6.32470        3.38173        1.97720
H         -2.77722        1.22335        2.89138
H         -3.69766        2.12625       -1.12686
C          3.81543       -3.64461        1.60006
C          4.04095       -3.31201        0.27058
C          3.30753       -2.26412       -0.26882
C          2.36838       -1.59591        0.47820
C          2.16153       -1.94399        1.79245
C          2.89131       -2.96606        2.38349
H          4.37436       -4.44584        2.04567
H          3.46884       -1.97168       -1.29182
H          1.43437       -1.40846        2.37242
C          4.54097        2.60283       -2.02607
C          4.28545        1.41466       -2.70006
C          3.32580        0.56069       -2.16826
C          2.67303        0.88154       -1.00305
C          2.94295        2.05691       -0.35088
C          3.87568        2.95073       -0.85640
H          5.29209        3.26197       -2.41834
H          3.07026       -0.35777       -2.66741
H          2.44095        2.26750        0.57640
Pd         0.29187        0.60881        1.52118
C         -5.51097       -1.24250       -2.70880
C         -4.89550       -2.57724       -2.24571
C         -5.97600       -3.36317       -1.47859
C         -4.45815       -3.37499       -3.48621
H         -5.84520       -0.65246       -1.85585
H         -4.79296       -0.65269       -3.27709
H         -6.37513       -1.41576       -3.34996
H         -6.86405       -3.50689       -2.09386
H         -5.61654       -4.34718       -1.18040
H         -6.27320       -2.82758       -0.57712
H         -3.70808       -2.82456       -4.05163
H         -4.02897       -4.33669       -3.20732
H         -5.30424       -3.56424       -4.14663
C         -1.49427       -4.28581        2.39680
C         -1.36249       -4.49480        0.87672
C          0.12264       -4.60794        0.49498
C         -2.05837       -5.81924        0.50762
H         -0.96264       -3.39239        2.71996
H         -2.54050       -4.17130        2.67950
H         -1.08842       -5.13516        2.94558
H          0.23257       -4.77708       -0.57552
H          0.66258       -3.69943        0.75230
H          0.59969       -5.43819        1.01515
H         -1.60634       -6.65462        1.04230
H         -3.11589       -5.79325        0.76987
H         -1.96963       -6.02543       -0.55888
C         -6.22790        3.09749        4.41507
C         -4.90939        2.35615        4.12271
C         -3.76388        3.09073        4.84432
C         -5.02482        0.91967        4.66614
H         -7.07116        2.60301        3.93320
H         -6.42823        3.12165        5.48619
H         -6.18432        4.12870        4.06513
H         -2.81500        2.57252        4.71071
H         -3.64979        4.10220        4.45512
H         -3.95745        3.15986        5.91452
H         -4.09400        0.36983        4.53183
H         -5.25882        0.92270        5.73052
H         -5.81329        0.37429        4.14795
C         -6.47914        2.40166       -1.77114
C         -6.02129        3.47934       -0.77070
C         -5.21098        4.56042       -1.51017
C         -7.27167        4.13790       -0.15697
H         -7.02828        1.61112       -1.26009
H         -7.13185        2.82805       -2.53267
H         -5.62973        1.94674       -2.27929
H         -4.33883        4.13304       -2.00388
H         -5.81778        5.05121       -2.27088
H         -4.86037        5.32199       -0.81390
H         -7.89190        4.58705       -0.93260
H         -7.88223        3.40487        0.37001
H         -6.99664        4.92732        0.54226
C          6.11283       -3.04846       -1.11556
C          5.05376       -4.04912       -0.61608
C          4.31518       -4.66553       -1.81921
C          5.76836       -5.17792        0.15089
H          6.85761       -3.54535       -1.73696
H          5.65942       -2.25578       -1.70924
H          6.62861       -2.58292       -0.27600
H          3.54026       -5.35439       -1.48319
H          3.83827       -3.89768       -2.42748
H          5.00377       -5.21693       -2.45916
H          5.05564       -5.91997        0.51037
H          6.48211       -5.69130       -0.49332
H          6.31918       -4.78414        1.00488
C          1.69254       -2.42536        4.56530
C          2.71775       -3.33891        3.86312
C          4.06955       -3.18730        4.58535
C          2.23296       -4.79549        3.96852
H          0.70704       -2.51348        4.11037
H          1.59288       -2.69229        5.61713
H          2.00064       -1.38099        4.51792
H          4.82148       -3.85449        4.16590
H          4.43980       -2.16626        4.49508
H          3.97338       -3.41921        5.64588
H          2.09029       -5.08507        5.00945
H          1.28375       -4.92320        3.45027
H          2.95081       -5.48465        3.52520
C          5.07267        2.19359       -4.96719
C          5.10655        1.04218       -3.94381
C          4.55828       -0.22703       -4.62618
C          6.56115        0.77955       -3.51420
H          5.64022        1.93413       -5.86077
H          4.05089        2.41280       -5.27359
H          5.50358        3.10612       -4.55783
H          5.12908       -0.45990       -5.52498
H          4.62421       -1.09073       -3.96495
H          3.51719       -0.09554       -4.91993
H          6.60709       -0.02636       -2.78207
H          7.17639        0.49640       -4.36806
H          7.00266        1.66687       -3.06147
C          4.66149        3.92595        1.31404
C          4.14410        4.25770       -0.09813
C          2.83306        5.05908        0.00584
C          5.19349        5.12851       -0.81463
H          4.87859        4.83522        1.87407
H          3.92793        3.35324        1.88025
H          5.57564        3.33528        1.25985
H          2.99092        6.00031        0.53189
H          2.44362        5.28735       -0.98595
H          2.06878        4.50034        0.54487
H          6.14981        4.61092       -0.88717
H          4.86415        5.39103       -1.81987
H          5.36237        6.05710       -0.26949
H         -2.37613        1.02920       -3.70729
H          2.01405        2.24568       -4.28786
H         -2.84009       -0.36849       -4.67315
H         -1.47230        0.62485       -5.16959
H          0.46718        2.15136       -5.12908
H          1.10891        0.73747       -4.28789
