111
-148.55257682
P         -2.66546        1.84354        0.15980
P          0.16881        0.46294        0.40892
C         -1.81272        1.82301        1.76134
C         -0.55260        1.27189        1.85129
C         -3.64488        3.39779       -0.06984
C         -2.93228        4.38889       -0.96386
C         -2.41470        2.34873        2.88685
H         -3.40834        2.75973        2.81825
C         -1.74653        2.32865        4.09900
H         -2.21582        2.73986        4.97782
C         -0.48193        1.77891        4.18517
H          0.03621        1.75915        5.12981
C          0.11431        1.24230        3.05844
H          1.09127        0.78790        3.11351
Pd        -1.06211        1.24294       -1.39500
Cl        -2.55063        1.87048       -2.95223
Cl         0.51490        0.44398       -2.77949
C         -4.98317        2.87116       -0.61919
C         -4.00822        0.57915       -0.00903
H         -3.51663        5.30305       -1.09143
H         -1.95745        4.66311       -0.55380
H         -2.76274        3.96765       -1.95522
H         -4.93270        2.85882       -1.71678
H         -5.80128        3.56335       -0.36775
H         -3.82368        0.06721       -0.96309
C         -5.28565        1.43636       -0.09869
C         -3.99087       -0.40489        1.14055
H         -3.79052        3.82414        0.93062
H         -5.73965        1.49877        0.89981
H         -6.03587        0.93961       -0.73242
H         -4.10529        0.11236        2.09493
H         -4.80131       -1.13264        1.05660
H         -3.04797       -0.95356        1.17670
C         -1.38537       -3.81810        0.42685
C         -0.94036       -3.23765       -0.78804
C         -0.45375       -1.94353       -0.75254
C         -0.33471       -1.25892        0.42777
C         -0.65437       -1.85876        1.61769
C         -1.14556       -3.15316        1.65685
O         -2.11495       -5.03639        0.40798
C         -1.03905       -3.95528       -2.14256
H         -0.18734       -1.43267       -1.66040
H         -0.54707       -1.28585        2.52183
C         -1.46269       -3.78904        3.01901
C          4.68521        0.96427        0.08211
C          3.90324        1.99828        0.65703
C          2.53520        1.80633        0.76245
C          1.94093        0.66976        0.27822
C          2.67958       -0.28512       -0.36970
C          4.04878       -0.14778       -0.52582
O          6.10297        1.02833        0.14172
C          4.52312        3.30000        1.18906
H          1.91002        2.54463        1.23404
H          2.16534       -1.14474       -0.76260
C          4.81569       -1.19822       -1.34453
C         -2.38098       -3.60216       -2.80224
C          0.10532       -3.50725       -3.08014
C         -0.91030       -5.48032       -1.97823
C         -0.50066       -3.25583        4.10498
C         -2.90205       -3.43466        3.42311
C         -1.28479       -5.31750        2.97393
C         -3.52111       -4.86281        0.28142
H         -3.21876       -3.91459       -2.18315
H         -2.46415       -2.52597       -2.95314
H         -2.47905       -4.08769       -3.77275
H          0.00548       -2.46326       -3.37275
H          1.07282       -3.63770       -2.59702
H          0.10739       -4.09654       -3.99674
H          0.01959       -5.73399       -1.47036
H         -1.73083       -5.88793       -1.39342
H         -0.91562       -5.98053       -2.94634
H         -0.63716       -3.79602        5.04157
H          0.53730       -3.37761        3.79639
H         -0.67432       -2.20178        4.31644
H         -3.15566       -3.87297        4.38798
H         -3.02592       -2.35476        3.50094
H         -3.61848       -3.79805        2.69020
H         -0.27923       -5.57709        2.64464
H         -1.44490       -5.75995        3.95684
H         -1.98985       -5.77910        2.28722
H         -3.77125       -3.80211        0.23563
H         -3.87173       -5.35702       -0.62445
H         -4.02408       -5.31806        1.13444
C          6.66554        0.39359        1.28307
C          5.75065        3.70947        0.35484
C          3.51100        4.46476        1.10212
C          4.92235        3.10806        2.65998
C          5.26927       -2.33680       -0.41876
C          3.90997       -1.79077       -2.44850
C          6.03074       -0.57067       -2.05150
H          5.48549        3.80134       -0.69787
H          6.15042        4.66648        0.68915
H          6.54777        2.97448        0.43500
H          3.10923        4.55461        0.09318
H          2.68008        4.32912        1.79288
H          3.98745        5.41092        1.35790
H          5.65277        2.31009        2.76911
H          5.35648        4.01999        3.06908
H          4.05357        2.84690        3.26391
H          5.80728       -3.10266       -0.97688
H          5.92599       -1.96943        0.36611
H          4.41155       -2.80824        0.06053
H          3.45698       -0.99917       -3.04493
H          4.48317       -2.43042       -3.11914
H          3.11294       -2.40154       -2.02821
H          6.53542       -1.29949       -2.68518
H          6.75840       -0.19812       -1.33488
H          5.71995        0.26552       -2.67696
H          7.24726        1.11757        1.85341
H          5.87893       -0.02028        1.91523
H          7.33516       -0.40526        0.96502
