72
-108.39588115
Cl        -1.84918        0.51816        2.72356
Cl         1.14945       -0.41496        2.71278
P          1.14154       -1.12714       -0.32032
P         -2.26917        0.07406       -0.33371
C         -3.25147       -1.54172       -0.17470
C         -3.61112       -1.77087        1.29409
C         -4.51530       -1.46442       -1.02402
C         -3.35486        1.60412       -0.00146
C         -4.14979        1.97448       -1.26067
C         -1.48155        0.44009       -2.01301
C         -1.53952       -0.68843       -3.02198
C          1.10822        0.24778       -1.50911
C         -0.07033        0.99797       -1.94338
C          0.40382        2.09740       -2.78634
C          1.84977        2.02593       -2.85831
C          2.28162        0.87980       -2.08148
C         -2.38267       -2.70834       -0.62782
H         -2.72045       -1.78022        1.92242
H         -4.28402       -1.00938        1.67873
H         -5.20370       -0.70863       -0.64987
H         -5.04502       -2.41836       -1.01066
C         -4.33263        1.40439        1.15310
H         -4.93492        2.69282       -1.01875
H         -4.62647        1.10393       -1.70836
H         -2.10584        1.25127       -2.39844
H         -0.87360       -1.49608       -2.72745
H         -1.19898       -0.35197       -4.00341
H         -2.54545       -1.08708       -3.14609
H         -0.23167        2.79211       -3.33840
H          2.49820        2.69324       -3.43033
Pd        -0.49226       -0.35207        1.16696
H          3.31029        0.55396       -1.91347
C         -2.38314        2.72359        0.33863
H         -3.52394        2.44810       -2.01636
H         -3.82596        1.06983        2.05554
H         -4.83137        2.34394        1.39514
H         -5.11284        0.68912        0.90003
H         -1.62625        2.82984       -0.43991
H         -2.90401        3.67826        0.43636
H         -1.88275        2.52223        1.28527
H         -4.11152       -2.73231        1.42069
H         -4.28752       -1.22835       -2.06226
H         -1.44605       -2.72463       -0.07314
H         -2.88710       -3.65902       -0.44679
H         -2.15767       -2.66745       -1.69018
C          2.81753       -1.20549        0.35951
C          3.25349       -2.14647        1.25889
C          4.58735       -1.85387        1.54370
C          4.91237       -0.74497        0.80221
O          3.83493       -0.33673        0.07042
H          2.66444       -2.94268        1.68336
H          5.23433       -2.39055        2.21823
H          5.87664       -0.25208        0.79002
C          0.77231       -2.72292       -1.07102
C          0.74927       -3.90247       -0.36828
C          0.42898       -4.91285       -1.27614
C          0.27006       -4.30610       -2.49779
O          0.47405       -2.96033       -2.38503
H          0.92813       -4.01726        0.68858
H          0.32645       -5.96378       -1.06028
H          0.01758       -4.80656       -3.42438
Fe         1.25902        2.16990       -0.89382
C          2.22433        2.05126        0.88766
C          0.89367        2.59879        1.05345
C          0.80207        3.82998        0.29035
C          2.06839        4.00768       -0.39563
C          2.95607        2.92579       -0.00722
H          2.60294        1.13895        1.35166
H          0.13508        2.19346        1.72551
H         -0.05269        4.50800        0.24976
H          2.32975        4.84496       -1.04644
H          3.99124        2.79098       -0.32882
