111
-148.55894057
P         -2.43601        2.29869        0.37077
P         -0.02088        0.23868        0.51210
C         -1.63749        1.95512        1.95849
C         -0.59307        1.05853        2.01289
C         -2.80923        4.09714        0.15748
C         -1.86413        4.72975       -0.84092
C         -2.07725        2.57292        3.11147
H         -2.90390        3.26294        3.06378
C         -1.46056        2.29476        4.31922
H         -1.80216        2.77695        5.22056
C         -0.40989        1.39880        4.37079
H          0.07045        1.18217        5.31075
C          0.02406        0.77695        3.21357
H          0.84279        0.07485        3.23644
Pd        -1.12886        1.29565       -1.23319
Cl        -2.56348        1.99630       -2.80462
Cl         0.28274        0.22327       -2.61162
C         -4.28757        4.09113       -0.27553
C         -4.14087        1.59031        0.26022
H         -1.94660        4.24169       -1.81373
H         -2.08496        5.79018       -0.98379
H         -0.82456        4.63939       -0.51623
H         -4.33236        4.09611       -1.37340
H         -4.78508        5.01927        0.04460
H         -4.19574        1.08202       -0.71162
C         -5.03942        2.84138        0.26507
C         -4.40434        0.62144        1.39338
H         -2.69926        4.56121        1.14592
H         -5.37420        3.03268        1.29386
H         -5.95715        2.65501       -0.31318
H         -4.33048        1.12571        2.35856
H         -5.40393        0.18601        1.32357
H         -3.67595       -0.19287        1.39702
C         -1.23965       -4.15161        0.41705
C         -0.15395       -3.74171        1.23279
C          0.20574       -2.40362        1.22513
C         -0.51378       -1.48338        0.50803
C         -1.63523       -1.85766       -0.18607
C         -2.04370       -3.17979       -0.23041
O         -1.49976       -5.53514        0.22695
C          0.63749       -4.73068        2.10380
H          1.06370       -2.06048        1.77696
H         -2.18709       -1.10117       -0.71486
C         -3.31407       -3.54052       -1.01712
C          4.41023        0.95061       -0.25467
C          3.83391       -0.29904       -0.59793
C          2.48356       -0.48740       -0.35467
C          1.73612        0.47578        0.26974
C          2.31114        1.64490        0.69560
C          3.65760        1.89608        0.48800
O          5.72189        1.27450       -0.69243
C          4.63184       -1.42766       -1.26862
H          1.98651       -1.38527       -0.67843
H          1.68421        2.37052        1.18500
C          4.26811        3.19590        1.03473
C          1.78062       -5.34168        1.28006
C          1.24668       -4.01390        3.33009
C         -0.28003       -5.84339        2.64285
C         -4.01804       -4.76723       -0.40929
C         -4.33224       -2.37818       -0.98026
C         -2.93855       -3.81239       -2.48189
C         -0.81620       -6.10848       -0.88059
H          2.36764       -6.03541        1.88143
H          1.40147       -5.88402        0.41786
H          2.44903       -4.56366        0.91445
H          2.03102       -3.31630        3.03973
H          0.48172       -3.46394        3.87773
H          1.69607       -4.73304        4.01458
H          0.26372       -6.51039        3.31136
H         -1.11646       -5.41686        3.19552
H         -0.68700       -6.44720        1.83535
H         -3.39577       -5.65599       -0.47344
H         -4.24720       -4.59574        0.64194
H         -4.95141       -4.98104       -0.92949
H         -4.54167       -2.08070        0.04638
H         -3.97340       -1.50744       -1.52675
H         -5.27467       -2.67556       -1.43950
H         -2.23099       -4.63403       -2.56214
H         -3.81945       -4.06666       -3.07067
H         -2.47552       -2.93303       -2.92918
H         -0.22537       -6.95971       -0.54253
H         -1.53886       -6.46752       -1.61296
H         -0.16165       -5.37118       -1.34723
C          5.76375        1.90357       -1.96731
C          4.07592       -2.80679       -0.84773
C          4.51249       -1.29143       -2.79408
C          6.11173       -1.39685       -0.84540
C          3.54236        3.63609        2.32680
C          5.75177        3.00313        1.39784
C          4.12025        4.30786       -0.01476
H          4.03587       -2.88845        0.23803
H          3.07617       -2.97895       -1.24347
H          4.71009       -3.61061       -1.22094
H          5.05457       -2.08880       -3.30169
H          3.46888       -1.34083       -3.10401
H          4.91329       -0.34028       -3.13676
H          6.65819       -2.23877       -1.26974
H          6.60210       -0.48599       -1.17887
H          6.20150       -1.44610        0.23927
H          4.05278        4.48103        2.78849
H          2.51907        3.95117        2.12813
H          3.51631        2.82361        3.05256
H          6.16634        3.90614        1.84528
H          5.86966        2.18677        2.10962
H          6.34800        2.76833        0.51962
H          4.63798        4.05152       -0.93596
H          4.53135        5.24808        0.35188
H          3.07062        4.47026       -0.25879
H          4.75399        2.03908       -2.35699
H          6.25348        2.87335       -1.88027
H          6.34065        1.29138       -2.66023
