72
-98.09150540
Fe        -0.02323        2.78703        0.00315
P          1.82300       -0.10434       -0.17808
P         -1.90169       -0.03276       -0.12273
C          1.40421        1.50485        0.59673
C          0.44108        1.71080        1.66364
C          0.41220        3.12863        1.97840
C          1.37901        3.79940        1.12808
C          1.99357        2.79546        0.27577
C         -1.48198        1.64249       -0.73346
C         -2.03127        2.90178       -0.25489
C         -1.38498        3.98148       -0.98186
C         -0.44901        3.39135       -1.92116
C         -0.51692        1.94776       -1.77466
C          2.63375        0.22303       -1.81650
C          4.15013        0.18393       -1.51346
C          3.30662       -0.76086        0.70593
C          4.45413       -0.02287       -0.00253
C         -2.80479        0.11034        1.49438
C         -4.29212       -0.07517        1.11675
C         -3.29455       -0.69169       -1.14630
C         -4.51680       -0.10629       -0.42035
H         -0.13040        0.92875        2.16371
H         -0.20374        3.60121        2.74707
H          1.61229        4.86649        1.13604
H          2.77675        2.97176       -0.46465
H         -2.80217        3.01286        0.51070
H          0.04113        1.21530       -2.35842
Cl         1.47167       -3.00491        0.65557
Cl        -1.68112       -3.05963       -0.06339
Pd        -0.07592       -1.48156        0.05324
H          2.33134        1.24278       -2.08753
C          2.18676       -0.76479       -2.89318
H          3.37323       -1.83496        0.50042
C          3.20164       -0.51217        2.20447
H          4.63627        1.10017       -1.88023
H          4.61046       -0.62626       -2.09291
H          5.40426       -0.56094        0.13830
H          4.59339        0.95273        0.48459
H         -1.58419        5.04834       -0.85793
H          0.18029        3.93513       -2.62938
H          1.11515       -0.62715       -3.08427
H          3.13603        0.56961        2.38184
H         -2.61612        1.12492        1.86417
C         -2.30550       -0.91831        2.50439
H         -3.28748       -1.78303       -1.04904
C         -3.17097       -0.29932       -2.61247
H         -4.90884        0.70600        1.58522
H         -4.64753       -1.02140        1.54643
H         -5.42518       -0.67285       -0.67814
H         -4.68916        0.91434       -0.79090
H         -2.52306       -1.92327        2.11885
H         -3.05463        0.79035       -2.67941
C          2.45348       -2.22523       -2.55875
H          3.51644       -2.42459       -2.41810
H          1.95074       -2.51977       -1.63813
H          2.10073       -2.89481       -3.34658
C          4.36086       -1.10757        2.98897
H          4.26200       -0.93248        4.06264
H          4.42466       -2.18654        2.83625
H          5.31435       -0.68036        2.67348
C         -2.91231       -0.73738        3.88770
H         -2.67784        0.24856        4.29357
H         -3.99993       -0.82287        3.86055
H         -2.54290       -1.48136        4.59712
C         -2.01441       -1.00195       -3.30496
H         -1.07501       -0.80695       -2.78790
H         -2.15443       -2.08459       -3.30718
H         -1.89627       -0.68061       -4.34217
H          2.68199       -0.50576       -3.83944
H          2.24814       -0.92140        2.56752
H         -1.21065       -0.87297        2.56899
H         -4.11453       -0.52306       -3.12945
