100
-131.97661972
C         -1.60836        3.85963       -1.35418
C         -2.35496        2.59948       -1.43536
C         -0.22012        3.56088       -1.40341
C         -0.03750        2.09059       -1.54327
C          1.11774        1.53063       -2.30398
C         -1.42502        1.51429       -1.56053
C         -1.83318        0.12584       -2.02011
C         -0.94831       -0.47047       -3.09736
Cl         1.04144       -0.39413        2.75666
Cl        -1.74201       -1.62487        2.33497
C          3.18153        0.55166       -3.92713
C          2.42585        1.62724       -4.35130
C          2.92434       -0.02501       -2.69166
C          1.41972        2.11325       -3.55445
C          1.90606        0.43662       -1.89175
H         -3.44047        2.51674       -1.51032
H          0.58482        4.29756       -1.45617
H          0.01574       -0.76711       -2.68529
H         -1.39708       -1.35842       -3.54871
H         -0.76317        0.24756       -3.89971
H          3.97934        0.17304       -4.54489
H          2.62751        2.08441       -5.30651
H          3.55327       -0.82996       -2.34832
H          0.82418        2.94537       -3.88854
H         -2.04668        4.86036       -1.32070
P          1.81650       -0.27128       -0.23474
H         -2.85027        0.20454       -2.42321
P         -1.99536       -1.01703       -0.57795
H         -2.90958       -2.93506       -1.76472
C         -1.80753       -3.87115       -0.16153
C         -1.99593       -2.75897       -1.20062
C         -3.05981       -4.10360        0.68584
H         -3.34083        0.31132        0.88149
C         -4.79987       -0.27093       -0.58316
C         -3.56959       -0.56640        0.27961
H         -4.55636        0.58161       -1.24018
C         -5.19199       -1.45168       -1.47059
H          3.57643       -1.87592       -0.58909
H          2.69664        0.66574        1.81518
C          3.56967        3.23435        1.27578
C          2.69818        2.30371        0.41306
C          2.94498        0.82979        0.76129
C          4.42903        0.48701        0.55824
C          5.33330        1.41049        1.40142
C          5.06127        2.89575        1.09254
H          3.29446        3.11339        2.33082
H          3.37127        4.28876        1.03763
H          2.94667        2.45855       -0.64420
H          1.63350        2.54941        0.49645
H          4.62107       -0.56603        0.80029
H          4.67500        0.59659       -0.50468
H          5.14805        1.22228        2.46630
H          6.39304        1.16720        1.24121
H          5.35768        3.11124        0.05823
H          5.68825        3.54596        1.71897
C          2.42692       -4.29121       -1.28302
C          1.79061       -2.88809       -1.22183
C          2.54389       -1.98482       -0.23847
C          2.58116       -2.62122        1.15986
C          3.22487       -4.02063        1.11358
C          2.48067       -4.93152        0.11771
H          3.44531       -4.20794       -1.68246
H          1.88778       -4.93598       -1.99080
H          0.75190       -2.96950       -0.88709
H          1.74303       -2.42693       -2.21763
H          3.09700       -1.96372        1.87225
H          1.55783       -2.71225        1.54088
H          4.27426       -3.92719        0.80781
H          3.24902       -4.47208        2.11528
H          1.45858       -5.10163        0.47854
H          2.94579       -5.92650        0.07494
H         -0.98945       -3.56323        0.51382
C         -1.39367       -5.17726       -0.84841
H         -3.80536       -1.35800        0.98645
C         -5.97576        0.15013        0.30423
H         -1.18393       -2.80902       -1.92677
H         -3.30202       -3.24160        1.30345
H         -2.92838       -4.95304        1.35801
H         -3.92175       -4.31737        0.05338
H         -1.20100       -5.96861       -0.12231
H         -2.18421       -5.52640       -1.51341
H         -0.49392       -5.04978       -1.45107
H         -4.43291       -1.66211       -2.22342
H         -5.33722       -2.35252       -0.87393
H         -6.12594       -1.25573       -1.99999
H         -6.25920       -0.66123        0.97539
H         -5.72265        1.01346        0.92174
H         -6.85432        0.40848       -0.28908
Fe        -1.10323        2.63671        0.18823
C         -1.83150        4.09341        1.46917
C         -0.43019        3.82779        1.73811
C         -0.30557        2.42317        2.07074
C         -1.62219        1.82310        2.00446
C         -2.56812        2.85229        1.62497
H         -2.26315        5.06752        1.22800
H          0.37770        4.56322        1.73305
H          0.59840        1.91105        2.40279
H         -1.85052        0.79018        2.27526
H         -3.64890        2.72967        1.52330
Pd        -0.18480       -0.81033        0.89497
