171
-217.84543494
P         -1.56420        0.40048       -0.33931
P          1.58434       -0.44351       -0.31017
C         -0.83529        1.32196       -1.69775
C          0.85808       -1.41564       -1.63837
C         -0.08082        0.66408       -2.66184
C          0.53639        1.42338       -3.67455
C          0.35266        2.79599       -3.69803
C         -0.41585        3.42706       -2.74279
C         -1.00487        2.68415       -1.73864
C          1.03531       -2.77777       -1.61199
C          0.42702       -3.57795       -2.55862
C         -0.37537       -3.00427       -3.52178
C         -0.56753       -1.63351       -3.56777
C          0.07721       -0.81508       -2.62002
Cl         1.59731        0.23609        2.89182
Cl        -1.61560       -0.35696        2.87810
C         -1.45812       -1.05870       -4.61346
C          1.36248        0.77466       -4.72972
H         -0.55611        4.49499       -2.77902
H         -1.60348        3.16916       -0.98500
H          1.65178       -3.21998       -0.84663
H          0.57252       -4.64562       -2.53783
H          0.82072        3.37207       -4.47838
H         -0.86848       -3.62477       -4.25105
C         -3.95543       -3.21676       -1.61043
C         -2.93763       -3.38236       -0.67965
C         -2.20678       -2.26014       -0.31175
C         -2.47512       -1.04099       -0.88162
C         -3.47040       -0.89647       -1.81654
C         -4.24009       -1.98968       -2.19668
H         -4.55996       -4.06614       -1.86968
H         -1.42959       -2.32405        0.42969
H         -3.64957        0.08097       -2.23151
C         -4.28950        2.99900        2.19828
C         -4.84098        1.95287        1.46756
C         -3.98633        1.18398        0.69087
C         -2.64328        1.45968        0.64019
C         -2.11511        2.49505        1.37027
C         -2.92729        3.27767        2.18084
H         -4.93544        3.60918        2.79932
H         -4.37304        0.35284        0.12793
H         -1.05657        2.68081        1.31622
C          4.45468       -2.89245        2.20892
C          3.10288       -3.21551        2.23538
C          2.24384       -2.47854        1.43118
C          2.72034       -1.44902        0.65854
C          4.05626       -1.13409        0.65650
C          4.95541       -1.85757        1.42877
H          5.14088       -3.45006        2.81800
H          1.18896       -2.69498        1.42199
H          4.39016       -0.30674        0.05642
C          3.82094        3.29391       -1.52855
C          2.88079        3.37418       -0.50853
C          2.18321        2.22024       -0.17952
C          2.42150        1.04563       -0.84838
C          3.35766        0.97969       -1.85100
C          4.08225        2.11087       -2.20944
H          4.38303        4.16944       -1.79360
H          1.46440        2.23089        0.62180
H          3.52825        0.03335       -2.33540
Pd        -0.01016       -0.02607        1.34691
C         -2.48873       -5.80568       -1.16940
C         -2.68205       -4.76009       -0.05478
C         -3.88812       -5.14680        0.81870
C         -1.41665       -4.75241        0.82414
H         -1.66717       -5.52069       -1.82556
H         -2.26057       -6.78511       -0.74932
H         -3.38451       -5.90848       -1.78030
H         -3.73506       -6.11832        1.28825
H         -4.04320       -4.41040        1.60708
H         -4.80131       -5.19984        0.22674
H         -1.21740       -5.74577        1.22583
H         -0.54674       -4.44544        0.24451
H         -1.52749       -4.07332        1.66910
C         -6.73137       -2.07179       -2.37847
C         -5.42489       -1.85841       -3.16415
C         -5.31365       -2.91733       -4.27803
C         -5.46794       -0.46524       -3.82243
H         -6.82376       -1.33860       -1.57750
H         -7.59990       -1.97312       -3.02937
H         -6.76051       -3.06319       -1.92736
H         -4.37558       -2.81262       -4.82149
H         -5.35540       -3.92803       -3.87453
H         -6.12919       -2.81490       -4.99378
H         -4.54442       -0.25777       -4.36220
H         -6.29027       -0.39943       -4.53472
H         -5.61647        0.31773       -3.07930
C         -6.51485        0.16306        1.99369
C         -6.33699        1.60924        1.49311
C         -6.90956        1.73729        0.06925
C         -7.12376        2.54993        2.42540
H         -7.56989       -0.10479        2.04704
H         -6.02410       -0.54963        1.33177
H         -6.08481        0.04522        2.98806
H         -7.97432        1.50533        0.05387
H         -6.77847        2.75099       -0.30878
H         -6.41028        1.05735       -0.61981
H         -8.18174        2.28802        2.43534
H         -6.75774        2.48257        3.44973
H         -7.04409        3.58578        2.09613
C         -2.15015        5.64812        2.05206
C         -2.32199        4.43795        2.98458
C         -0.95025        4.02819        3.56066
C         -3.22994        4.83550        4.16562
H         -1.69189        6.48608        2.57704
H         -1.52007        5.39563        1.20041
H         -3.11434        5.97659        1.66448
H         -1.03481        3.11042        4.14229
H         -0.21694        3.86204        2.77388
H         -0.55372        4.80597        4.21296
H         -2.74961        5.59293        4.78497
H         -4.17472        5.25328        3.81973
H         -3.44408        3.97352        4.79727
C          3.58859       -4.88374        4.09546
C          2.53770       -4.34788        3.10401
C          2.08689       -5.49974        2.18981
C          1.33519       -3.82370        3.91487
H          3.15782       -5.65207        4.73740
H          4.43310       -5.33153        3.57227
H          3.96194       -4.08569        4.73701
H          1.33717       -5.16121        1.47676
H          2.92975       -5.89406        1.62248
H          1.65687       -6.31583        2.77018
H          0.94876       -4.59407        4.58177
H          1.62544       -2.96580        4.52094
H          0.51840       -3.51135        3.26614
C          7.26396       -2.76715        1.04948
C          6.45355       -1.52370        1.45951
C          6.84478       -1.09262        2.88446
C          6.79921       -0.37681        0.48842
H          6.97727       -3.10118        0.05245
H          8.33197       -2.55015        1.03861
H          7.10009       -3.59381        1.73964
H          6.66274       -1.89113        3.60282
H          7.90115       -0.82974        2.93703
H          6.26402       -0.22451        3.19579
H          7.86727       -0.16068        0.50875
H          6.53465       -0.63883       -0.53588
H          6.27357        0.53906        0.75828
C          1.15245        5.09655        0.04876
C          2.61072        4.66482        0.27691
C          3.53677        5.81195       -0.17007
C          2.84708        4.40447        1.77715
H          0.91657        5.99473        0.61912
H          0.97562        5.30922       -1.00492
H          0.46082        4.31221        0.35109
H          4.58434        5.55008       -0.02228
H          3.38455        6.05228       -1.22213
H          3.33756        6.71564        0.40585
H          2.67245        5.30705        2.36243
H          2.18339        3.62895        2.15665
H          3.87218        4.07963        1.95381
C          4.88649        3.11826       -4.36693
C          5.18792        2.07546       -3.27425
C          5.29750        0.68765       -3.93547
C          6.53723        2.40283       -2.60783
H          5.64245        3.08964       -5.15149
H          3.91722        2.93009       -4.82638
H          4.87075        4.12807       -3.95892
H          5.55021       -0.07769       -3.20186
H          4.36288        0.40639       -4.41890
H          6.07732        0.68274       -4.69689
H          6.52729        3.39677       -2.16195
H          6.76116        1.68550       -1.81883
H          7.34937        2.37045       -3.33389
H         -0.97830       -1.08543       -5.59276
H          1.75146       -0.18778       -4.39443
H         -1.72040       -0.02336       -4.39204
H         -2.38742       -1.62462       -4.68147
H          2.21416        1.39972       -4.99811
H          0.77661        0.60638       -5.63423
