58
-89.86281176
P          1.75219       -0.19828        0.82640
C          1.85804        1.58951        1.00048
C          0.82791        2.38781        0.56164
C          0.89372        3.75800        0.72401
C          1.99558        4.32376        1.33332
C          3.02363        3.52047        1.78646
C          2.95061        2.14820        1.62409
H          3.73996        1.50835        1.98594
H         -0.04008        1.93764        0.11686
C          3.31246       -0.88976        0.25878
C          3.53338       -2.24358        0.37533
C          4.71450       -2.79153       -0.09291
C          5.66273       -1.98089       -0.68460
C          5.43026       -0.62625       -0.81528
C          4.24873       -0.08181       -0.34555
H          4.04560        0.97006       -0.46416
H          2.77439       -2.87206        0.81339
C          1.32301       -0.88395        2.48579
C         -0.16385       -1.12247        2.69908
C         -1.03744        0.08817        2.37718
P         -1.64110        0.03300        0.63664
C         -2.92969       -1.21607        0.54637
C         -4.23869       -0.82875        0.72334
C         -5.24971       -1.77151        0.66769
C         -4.94088       -3.09728        0.43596
C         -3.62625       -3.48162        0.26035
C         -2.61762       -2.53690        0.31763
H         -1.58932       -2.82494        0.16992
H         -4.46372        0.21104        0.90027
C         -2.30910        1.62181        0.12051
C         -2.65569        2.57935        1.04732
C         -3.14167        3.80236        0.62129
C         -3.28061        4.05684       -0.72897
C         -2.94035        3.09054       -1.65456
C         -2.45522        1.87001       -1.22449
H         -2.19147        1.09903       -1.92967
H         -2.54190        2.37191        2.09887
Pd         0.10280       -0.60334       -0.76734
Cl         1.76926       -1.08680       -2.19338
Cl        -1.51025       -1.02768       -2.27894
H         -1.93313        0.12156        3.00254
H         -0.49447        1.02005        2.54322
H         -0.49382       -1.97106        2.08414
H         -0.33173       -1.44394        3.73911
H          1.89564       -1.80230        2.63171
H          1.70396       -0.16346        3.21290
H          0.08206        4.37927        0.38275
H          3.88076        3.96064        2.26902
H          4.88953       -3.85105       -0.00292
H          6.16381        0.00526       -1.28895
H         -6.27554       -1.47049        0.80293
H         -3.38545       -4.51549        0.07477
H         -3.41005        4.55601        1.34332
H         -3.05239        3.28542       -2.70844
H          2.05057        5.39257        1.46115
H          6.58134       -2.40751       -1.05321
H         -5.72731       -3.83289        0.38965
H         -3.65842        5.01021       -1.06077
