111
-148.55013236
P         -2.64066        1.97204       -0.46779
P          0.05344        0.55696        0.40896
C         -1.94778        2.29069        1.17682
C         -0.75711        1.70065        1.54200
C         -3.18799        3.55453       -1.26065
C         -2.36284        3.87868       -2.48659
C         -2.59605        3.13479        2.05569
H         -3.51967        3.60469        1.75977
C         -2.05451        3.37523        3.30658
H         -2.56134        4.03238        3.99426
C         -0.86558        2.77491        3.67376
H         -0.44476        2.96017        4.64834
C         -0.21545        1.93394        2.78854
H          0.71041        1.45443        3.06288
Pd        -1.09027        0.67328       -1.60079
Cl        -2.46902        0.79636       -3.36771
Cl         0.39955       -0.69833       -2.56355
C         -4.68779        3.31904       -1.54697
C         -4.23373        1.03133       -0.48720
H         -2.49246        3.11368       -3.25279
H         -2.65675        4.83482       -2.92604
H         -1.29793        3.92896       -2.24722
H         -4.94849        3.76904       -2.51565
H         -5.29898        3.85153       -0.80370
H         -3.99905        0.01555       -0.83400
C         -5.06018        1.80886       -1.53172
C         -4.87492        0.99669        0.88324
H         -3.05289        4.33658       -0.50101
H         -6.13295        1.67445       -1.32878
H         -4.88978        1.38243       -2.53136
H         -5.79452        0.40663        0.88153
H         -4.19972        0.57198        1.62784
H         -5.13350        2.00439        1.21257
C         -1.17217       -3.74635        1.22962
C          0.04726       -3.47950        0.55624
C          0.39750       -2.15818        0.33625
C         -0.37450       -1.13272        0.81435
C         -1.50221       -1.38395        1.55113
C         -1.90252       -2.68264        1.82011
O         -1.68675       -5.06946        1.26766
C          0.95508       -4.58967        0.00572
H          1.26573       -1.90844       -0.24889
H         -2.07555       -0.54580        1.90582
C         -3.13390       -2.91499        2.70942
C          4.56782        1.09828        0.10726
C          3.73432        1.49046       -0.97100
C          2.36376        1.35655       -0.82269
C          1.82607        0.77663        0.29643
C          2.63397        0.29071        1.29183
C          4.01209        0.41146        1.21646
O          5.95308        1.41248        0.09021
C          4.28962        2.04597       -2.29242
H          1.69299        1.69135       -1.59496
H          2.16880       -0.19728        2.13080
C          4.88432       -0.17762        2.33649
C          2.43311       -4.13770        0.01252
C          0.87250       -5.86017        0.87092
C          0.54417       -4.90376       -1.44093
C         -3.03353       -4.25242        3.46573
C         -3.24585       -1.80571        3.78013
C         -4.39925       -2.89460        1.83866
C         -2.54576       -5.38288        0.17816
H          3.09054       -4.96074       -0.26664
H          2.61386       -3.33065       -0.69573
H          2.72710       -3.79709        1.00444
H          1.11839       -5.63456        1.90804
H         -0.12562       -6.29022        0.85124
H          1.56605       -6.62192        0.51562
H          1.18078       -5.67743       -1.86922
H         -0.48581       -5.24897       -1.49151
H          0.62575       -4.01425       -2.06532
H         -2.11475       -4.29489        4.04967
H         -3.87465       -4.38168        4.14640
H         -3.03251       -5.09703        2.78152
H         -4.04510       -2.02915        4.48645
H         -2.31694       -1.71664        4.34281
H         -3.47130       -0.83653        3.33975
H         -5.29398       -3.02951        2.44581
H         -4.48895       -1.94627        1.31030
H         -4.37659       -3.68580        1.09287
H         -2.13918       -6.22778       -0.37741
H         -3.52883       -5.66410        0.55536
H         -2.64383       -4.52415       -0.48730
C          6.26592        2.69436        0.62020
C          5.67296        1.44843       -2.60817
C          3.36098        1.67095       -3.47087
C          4.37939        3.57682       -2.20583
C          4.17695       -1.37157        3.01604
C          6.21708       -0.70580        1.77510
C          5.14673        0.90109        3.39810
H          6.03643        1.79124       -3.57658
H          6.40929        1.73367       -1.86118
H          5.62413        0.36024       -2.62992
H          3.16365        0.59931       -3.48283
H          2.40702        2.19304       -3.41597
H          3.81680        1.93846       -4.42381
H          4.76335        3.99840       -3.13443
H          3.39712        4.01024       -2.01911
H          5.03686        3.88877       -1.39792
H          3.29772       -1.05433        3.57489
H          3.86822       -2.10984        2.27717
H          4.84385       -1.86508        3.72267
H          6.81081       -1.18035        2.55596
H          6.03854       -1.44056        0.99067
H          6.81433        0.09749        1.35050
H          4.20903        1.26382        3.81855
H          5.67035        1.75355        2.97281
H          5.75280        0.50716        4.21357
H          6.72641        3.30913       -0.15282
H          5.36376        3.18543        0.98709
H          6.97944        2.58593        1.43694
