45
-71.81390446
C          2.30592        1.50298        2.32386
P          1.52156        0.96021        0.76977
P         -0.99786        0.04674       -0.92600
C         -0.30155       -0.61034       -2.47944
Cl         1.55828       -1.73089        2.37948
H          2.85128        0.67511        2.76795
H         -0.79560       -0.15138       -3.33102
Cl        -1.35838       -2.56302        0.78201
C          0.44864        2.20879        0.02751
C         -0.62754        1.80366       -0.73279
C         -1.43256        2.73788       -1.35120
C         -1.15475        4.08597       -1.20840
C         -0.07245        4.49195       -0.45188
C          0.73408        3.55164        0.16484
H         -2.27329        2.40569       -1.93906
H         -1.78236        4.81824       -1.68907
H          0.14672        5.54153       -0.34429
H          1.58889        3.85693        0.74614
Pd         0.12145       -0.88166        0.87823
H         -0.43987       -1.68688       -2.52293
H          1.54617        1.84034        3.02310
H          0.76122       -0.39191       -2.52911
C         -5.45677       -0.68520       -0.39625
C         -4.77163        0.13398        0.47898
C         -3.41711        0.35261        0.30009
C         -2.76027       -0.24443       -0.75182
C         -3.43794       -1.06565       -1.62389
C         -4.79206       -1.28611       -1.44698
H         -6.51125       -0.85911       -0.25674
H         -5.28856        0.59944        1.30199
H         -2.86572        0.98534        0.97816
H         -2.90742       -1.53749       -2.43479
H         -5.32592       -1.93029       -2.12622
C          4.49661       -0.52009       -2.33108
C          4.28332       -1.24778       -1.17669
C          3.38640       -0.78724       -0.23094
C          2.71676        0.39548       -0.44135
C          2.91855        1.12027       -1.59323
C          3.81435        0.66231       -2.54251
H          5.19430       -0.87778       -3.07062
H          4.80841       -2.17484       -1.01529
H          3.17987       -1.35368        0.66279
H          2.37179        2.03659       -1.74706
H          3.97722        1.22664       -3.44598
H          2.99847        2.31674        2.12891
