111
-148.55705895
P         -2.61081        1.88666        1.08279
P          0.16632        0.48511        0.45507
C         -1.46804        1.50312        2.43648
C         -0.23949        0.94644        2.15240
C         -3.51564        3.47458        1.37427
C         -2.96887        4.59101        0.51165
C         -1.82219        1.75832        3.74584
H         -2.79165        2.17520        3.96436
C         -0.93792        1.46197        4.76884
H         -1.21368        1.66075        5.79161
C          0.29555        0.90981        4.48120
H          0.98285        0.67663        5.27771
C          0.64370        0.64672        3.16868
H          1.59511        0.19895        2.92869
Pd        -1.37031        1.64931       -0.84482
Cl        -3.11871        2.44576       -1.99700
Cl         0.01741        1.28633       -2.57462
C         -4.97825        3.09134        1.08171
C         -4.03556        0.71361        0.94450
H         -3.50561        5.52708        0.68263
H         -1.90910        4.76518        0.71261
H         -3.06497        4.34596       -0.54694
H         -5.19633        3.31404        0.02807
H         -5.66514        3.72259        1.66584
H         -4.10405        0.44431       -0.11813
C         -5.23949        1.58233        1.35502
C         -3.82641       -0.51809        1.79825
H         -3.39046        3.71435        2.43777
H         -5.43435        1.43283        2.42593
H         -6.15036        1.24195        0.83941
H         -4.68266       -1.19414        1.74164
H         -2.93957       -1.07079        1.48254
H         -3.68694       -0.24454        2.84572
C         -1.22590       -3.79276       -0.27338
C         -0.98246       -3.34866        1.05161
C         -0.53854       -2.05052        1.23799
C         -0.39566       -1.19399        0.17851
C         -0.71361       -1.59172       -1.09209
C         -1.17844       -2.86909       -1.34863
O         -1.48238       -5.16680       -0.52532
C         -1.16432       -4.26093        2.27457
H         -0.29407       -1.68864        2.22094
H         -0.58534       -0.87963       -1.88817
C         -1.60949       -3.22765       -2.77915
C          4.61155        0.68170       -0.50243
C          4.07279       -0.45356        0.15542
C          2.71233       -0.47576        0.41309
C          1.91773        0.60075        0.11625
C          2.45215        1.74374       -0.41660
C          3.80346        1.82914       -0.71003
O          5.94653        0.65502       -0.98669
C          4.92574       -1.66654        0.55903
H          2.24683       -1.34897        0.83737
H          1.78854        2.56490       -0.62565
C          4.35907        3.13749       -1.29380
C          0.14270       -5.02479        2.53570
C         -1.50848       -3.43215        3.53344
C         -2.32429       -5.24942        2.05760
C         -0.39219       -3.73905       -3.56393
C         -2.72489       -4.28849       -2.77445
C         -2.17680       -1.98307       -3.50137
C         -0.31732       -5.92989       -0.81294
H          0.41389       -5.64446        1.68450
H          0.96425       -4.33181        2.71631
H          0.04913       -5.67246        3.40704
H         -0.67159       -2.81118        3.84962
H         -2.36672       -2.78624        3.35134
H         -1.75488       -4.08539        4.37019
H         -2.49534       -5.85457        2.94754
H         -3.24566       -4.71501        1.82826
H         -2.11813       -5.92787        1.23340
H         -0.66556       -3.99055       -4.58833
H          0.38898       -2.98001       -3.59949
H          0.03100       -4.62730       -3.10084
H         -3.07385       -4.49478       -3.78594
H         -2.37923       -5.22677       -2.34818
H         -3.57539       -3.94756       -2.18501
H         -2.60589       -2.25653       -4.46491
H         -2.96027       -1.51336       -2.90719
H         -1.40444       -1.24056       -3.69568
H         -0.39465       -6.35501       -1.81341
H          0.57323       -5.30299       -0.75192
H         -0.23415       -6.75043       -0.10039
C          6.07241        0.14674       -2.30904
C          6.36398       -1.24342        0.90866
C          4.33996       -2.34935        1.81663
C          4.93600       -2.68575       -0.59042
C          5.82159        3.36067       -0.86811
C          4.25247        3.09201       -2.82580
C          3.55166        4.35153       -0.78081
H          6.87498       -0.82216        0.04667
H          6.36142       -0.49023        1.69585
H          6.94968       -2.09450        1.25520
H          4.19767       -1.62629        2.61940
H          3.38248       -2.82510        1.60947
H          5.01012       -3.12721        2.18194
H          5.52314       -3.56521       -0.32725
H          3.92298       -3.01329       -0.82348
H          5.36062       -2.25654       -1.49471
H          6.19317        4.31898       -1.23013
H          5.91092        3.35031        0.21764
H          6.47324        2.58559       -1.26343
H          3.21596        2.95910       -3.13511
H          4.62280        4.01498       -3.27112
H          4.82774        2.26601       -3.23679
H          3.49625        4.34845        0.30746
H          2.53741        4.35780       -1.17712
H          4.02034        5.28576       -1.08935
H          6.71865       -0.73081       -2.30443
H          5.09359       -0.12392       -2.70702
H          6.52901        0.90159       -2.94901
