171
-217.84209105
P         -1.60228        0.81228       -0.21600
P          1.46379       -0.44029       -0.26433
C         -0.76556        1.67053       -1.56569
C          0.63933       -1.24707       -1.63661
C         -0.01036        0.99926       -2.52455
C          0.75493        1.75758       -3.43172
C          0.69637        3.13987       -3.38523
C         -0.08764        3.78624       -2.45546
C         -0.80564        3.04480       -1.53901
C          0.68162       -2.61680       -1.71761
C          0.05852       -3.26948       -2.76286
C         -0.60360       -2.53676       -3.72532
C         -0.65707       -1.15340       -3.66160
C         -0.00982       -0.48780       -2.60172
Cl         1.99148        1.11901        2.51348
Cl        -1.20583        1.04629        3.07402
C         -1.37177       -0.39257       -4.72333
C          1.64423        1.11369       -4.43562
H         -0.12747        4.86311       -2.43167
H         -1.40221        3.54648       -0.79562
H          1.21207       -3.17600       -0.96445
H          0.09009       -4.34494       -2.82559
H          1.27937        3.71067       -4.08845
H         -1.08474       -3.04133       -4.54586
C         -3.48356       -3.19646       -1.13394
C         -3.83272       -2.09749       -1.90910
C         -3.21209       -0.88518       -1.63353
C         -2.30196       -0.78893       -0.60977
C         -1.98133       -1.88092        0.15979
C         -2.56118       -3.11650       -0.09717
H         -3.96127       -4.13568       -1.33965
H         -3.44086       -0.00172       -2.20534
H         -1.28496       -1.76505        0.97242
C         -4.77479        3.40216        1.74473
C         -5.16934        2.27783        1.02917
C         -4.17900        1.51034        0.43187
C         -2.85487        1.85435        0.54831
C         -2.48432        2.96614        1.26318
C         -3.44004        3.76431        1.87850
H         -5.51935        4.00989        2.22350
H         -4.44478        0.62482       -0.11787
H         -1.43570        3.18481        1.37025
C          4.78624        2.17990       -1.89306
C          4.67684        0.87352       -2.35775
C          3.64300        0.09198       -1.85590
C          2.78560        0.58965       -0.90441
C          2.91384        1.87891       -0.45492
C          3.91314        2.70597       -0.94757
H          5.57509        2.80101       -2.27098
H          3.49854       -0.91022       -2.22163
H          2.23432        2.24203        0.29633
C          3.28592       -3.65239        2.42293
C          3.80706       -3.43331        1.15408
C          3.23522       -2.43213        0.37964
C          2.16022       -1.70778        0.83412
C          1.64625       -1.96275        2.08404
C          2.20991       -2.92284        2.91163
H          3.73508       -4.39949        3.04825
H          3.63916       -2.21433       -0.59239
H          0.81124       -1.39230        2.44663
Pd         0.13934        0.67951        1.31915
C         -4.47335       -3.29099       -4.02291
C         -4.91466       -2.23928       -2.98923
C         -5.16899       -0.90745       -3.72177
C         -6.23218       -2.68275       -2.32585
H         -3.53566       -2.99863       -4.49331
H         -4.32498       -4.26553       -3.55943
H         -5.22182       -3.40516       -4.80684
H         -5.51060       -0.13835       -3.03002
H         -4.26657       -0.54949       -4.21454
H         -5.93652       -1.02697       -4.48631
H         -6.12341       -3.64902       -1.83479
H         -6.54654       -1.95891       -1.57395
H         -7.02981       -2.77150       -3.06321
C         -2.88942       -5.61152        0.30035
C         -2.22764       -4.31421        0.80380
C         -2.74154       -4.01979        2.22423
C         -0.70417       -4.53558        0.83316
H         -3.97612       -5.53120        0.31439
H         -2.57163       -5.84314       -0.71620
H         -2.61529       -6.45531        0.93354
H         -2.29432       -3.11039        2.62270
H         -3.82256       -3.88164        2.22066
H         -2.50760       -4.83886        2.90397
H         -0.33098       -4.76017       -0.16506
H         -0.18036       -3.65429        1.19815
H         -0.44258       -5.37104        1.48208
C         -7.58523        2.80398        1.63808
C         -6.63679        1.84828        0.88944
C         -6.80773        0.43269        1.47286
C         -7.02341        1.84198       -0.60089
H         -7.35656        2.82833        2.70339
H         -7.51191        3.81763        1.24447
H         -8.62132        2.48305        1.53058
H         -6.19844       -0.29401        0.93652
H         -6.50915        0.41016        2.52070
H         -7.84591        0.10719        1.40976
H         -6.41066        1.13938       -1.16378
H         -8.06633        1.55442       -0.73289
H         -6.88679        2.83060       -1.03871
C         -1.53022        5.22094        2.72038
C         -3.05508        4.99143        2.71662
C         -3.51718        4.77436        4.16898
C         -3.73495        6.24334        2.13302
H         -1.15435        5.37972        1.70972
H         -1.27280        6.10040        3.31034
H         -1.00672        4.36932        3.15466
H         -4.59861        4.65678        4.22700
H         -3.06033        3.87690        4.58578
H         -3.23852        5.61945        4.79817
H         -3.43580        6.39502        1.09603
H         -4.82030        6.15408        2.15872
H         -3.46099        7.13462        2.69731
C          6.76022        1.27352       -3.76985
C          5.68325        0.25725       -3.34372
C          4.95382       -0.23388       -4.60753
C          6.38075       -0.93534       -2.66367
H          7.46331        0.82093       -4.46904
H          6.31244        2.13532       -4.26446
H          7.33119        1.62433       -2.91038
H          4.49214        0.59832       -5.13687
H          5.64988       -0.71656       -5.29343
H          4.17565       -0.95583       -4.36303
H          5.66432       -1.71492       -2.40836
H          7.13137       -1.37594       -3.31958
H          6.87717       -0.61893       -1.74655
C          5.17032        4.91598       -1.08653
C          4.02520        4.13923       -0.40958
C          4.29355        4.08802        1.10612
C          2.70521        4.88662       -0.67549
H          5.01754        4.97883       -2.16384
H          5.22731        5.93397       -0.70122
H          6.13243        4.43934       -0.89988
H          5.21383        3.54330        1.31552
H          4.39230        5.09141        1.51970
H          3.48310        3.58750        1.63476
H          1.86598        4.39985       -0.17982
H          2.75677        5.91258       -0.31167
H          2.49148        4.91765       -1.74343
C          6.22197       -3.27084        0.52950
C          5.00998       -4.21533        0.60772
C          4.67941       -4.75691       -0.79730
C          5.37107       -5.41128        1.51021
H          6.48196       -2.89552        1.51906
H          7.09299       -3.78306        0.12122
H          6.00751       -2.41160       -0.10404
H          3.79123       -5.38785       -0.76687
H          4.49298       -3.95043       -1.50499
H          5.50356       -5.35326       -1.18838
H          6.19276       -5.98474        1.08125
H          5.68688       -5.07917        2.49884
H          4.52123       -6.08392        1.62564
C          1.93547       -1.76837        5.11230
C          1.68043       -3.07959        4.34518
C          2.38011       -4.23243        5.08985
C          0.16916       -3.36869        4.31481
H          1.42236       -0.93028        4.64159
H          1.58319       -1.84155        6.14087
H          2.99985       -1.53592        5.13374
H          1.97780       -4.34237        6.09686
H          2.23435       -5.17929        4.57011
H          3.45025       -4.04867        5.18286
H         -0.22193       -3.50414        5.32296
H         -0.38088       -2.54850        3.85609
H         -0.03735       -4.27682        3.74982
H         -0.69460       -0.12836       -5.53622
H          2.63667        1.56441       -4.40314
H         -1.80052        0.52919       -4.32716
H         -2.18459       -0.98092       -5.15049
H          1.25252        1.24094       -5.44575
H          1.75812        0.04568       -4.24661
