171
-217.83865798
P         -1.64119        0.67613        0.25823
P          1.44996       -0.20809       -0.29168
C         -0.91328        1.78535       -0.97050
C          0.57366       -0.91900       -1.70052
C         -0.29573        1.36161       -2.14076
C          0.32649        2.31961       -2.96366
C          0.28057        3.65582       -2.60329
C         -0.34442        4.05910       -1.44301
C         -0.93233        3.11553       -0.62294
C          0.69354       -2.25255       -2.00539
C          0.00224       -2.78608       -3.07494
C         -0.81462       -1.97531       -3.83579
C         -0.95470       -0.62774       -3.54448
C         -0.22750       -0.08423       -2.46835
Cl         2.18254        1.22959        2.61709
Cl        -0.91191        0.71675        3.48148
C         -1.84985        0.22979       -4.36992
C          1.06698        1.93164       -4.19570
H         -0.36420        5.10147       -1.16991
H         -1.40287        3.41215        0.30302
H          1.32782       -2.88018       -1.40453
H          0.09567       -3.83392       -3.30927
H          0.75661        4.38298       -3.23941
H         -1.35258       -2.38938       -4.67157
C         -2.79677       -3.61778       -0.64954
C         -1.74359       -3.39621        0.23050
C         -1.35788       -2.08242        0.46461
C         -2.01201       -1.03991       -0.15114
C         -3.06245       -1.28058       -1.00223
C         -3.47543       -2.57823       -1.27392
H         -3.11239       -4.62576       -0.83649
H         -0.55215       -1.87430        1.14541
H         -3.58736       -0.44544       -1.43298
C         -5.63732        2.50250        1.37537
C         -5.25084        2.45894        0.04083
C         -4.01125        1.90809       -0.25598
C         -3.20080        1.42699        0.74282
C         -3.59792        1.48092        2.05392
C         -4.82874        2.02242        2.39869
H         -6.59146        2.92221        1.63306
H         -3.66981        1.85761       -1.27694
H         -2.92640        1.10907        2.80508
C          3.95207       -3.49914        1.63655
C          3.04985       -2.81469        2.43960
C          2.27571       -1.82374        1.85175
C          2.41623       -1.51052        0.51983
C          3.33524       -2.18473       -0.24715
C          4.11059       -3.20369        0.28903
H          4.54805       -4.27391        2.08088
H          1.56743       -1.28272        2.44924
H          3.44717       -1.92279       -1.28454
C          4.36336        2.86766       -1.90510
C          3.59490        3.19905       -0.79663
C          2.72039        2.24045       -0.30358
C          2.61020        1.01524       -0.91079
C          3.35780        0.71523       -2.02353
C          4.25974        1.63733       -2.54174
H          5.07218        3.58554       -2.27416
H          2.12348        2.44128        0.56699
H          3.21494       -0.23784       -2.50127
Pd         0.27803        0.64155        1.58784
C          0.42110       -4.62684        0.58412
C         -1.05859       -4.54235        0.99247
C         -1.71963       -5.90290        0.69732
C         -1.16636       -4.27184        2.50488
H          0.93680       -3.69265        0.79364
H          0.93401       -5.41960        1.12819
H          0.51582       -4.83595       -0.48088
H         -1.64114       -6.15711       -0.35955
H         -1.23402       -6.69834        1.26259
H         -2.77319       -5.89589        0.97623
H         -0.73307       -5.08920        3.08050
H         -0.64717       -3.35549        2.78042
H         -2.20929       -4.16669        2.80294
C         -4.93094       -4.30408       -2.45275
C         -4.71826       -2.80902       -2.14630
C         -4.56748       -2.06195       -3.48341
C         -5.95206       -2.27541       -1.39607
H         -5.12029       -4.87110       -1.54163
H         -5.78944       -4.44553       -3.10927
H         -4.05891       -4.72816       -2.95051
H         -5.43562       -2.22629       -4.12152
H         -4.46941       -0.98823       -3.33115
H         -3.68645       -2.41214       -4.01923
H         -5.84909       -1.21262       -1.17988
H         -6.85881       -2.41311       -1.98476
H         -6.08115       -2.79631       -0.44755
C         -6.45651        1.82755       -2.06444
C         -6.12996        2.98509       -1.10229
C         -5.36787        4.08864       -1.86004
C         -7.45348        3.57532       -0.57943
H         -7.08689        2.16844       -2.88550
H         -5.55043        1.40249       -2.49477
H         -6.98536        1.03088       -1.54186
H         -5.97481        4.49826       -2.66726
H         -5.10401        4.90485       -1.18782
H         -4.44667        3.70577       -2.29789
H         -8.06250        3.94798       -1.40298
H         -8.03820        2.82154       -0.05246
H         -7.27037        4.40859        0.09874
C         -5.54942        3.57624        4.23069
C         -5.30643        2.10281        3.85577
C         -4.26321        1.51821        4.82878
C         -6.61426        1.30439        4.00683
H         -4.63713        4.15952        4.10708
H         -6.31986        4.02317        3.60351
H         -5.87027        3.66697        5.26829
H         -4.06792        0.46851        4.61072
H         -3.32148        2.06332        4.76900
H         -4.61559        1.58116        5.85814
H         -6.96735        1.32549        5.03770
H         -7.40318        1.71262        3.37623
H         -6.46379        0.26306        3.72257
C          2.53853       -4.61401        4.11229
C          2.95374       -3.14255        3.93681
C          1.91916       -2.24984        4.65183
C          4.32681       -2.90831        4.59358
H          1.57845       -4.80225        3.63419
H          3.27022       -5.28805        3.66845
H          2.44575       -4.87012        5.16753
H          2.18267       -1.19597        4.56368
H          0.92174       -2.39045        4.23778
H          1.87015       -2.48902        5.71388
H          4.64615       -1.87541        4.45601
H          4.28702       -3.11000        5.66386
H          5.08928       -3.55482        4.16087
C          6.13357       -2.94977       -1.16777
C          5.09828       -3.94903       -0.61889
C          4.32535       -4.59004       -1.78736
C          5.84453       -5.06167        0.14164
H          6.67652       -2.47151       -0.35283
H          6.85826       -3.45051       -1.80950
H          5.65469       -2.16644       -1.75365
H          4.99610       -5.15127       -2.43762
H          3.56371       -5.27502       -1.41499
H          3.82745       -3.83571       -2.39560
H          6.53475       -5.58574       -0.51940
H          6.42663       -4.65097        0.96639
H          5.14767       -5.79791        0.54192
C          5.17418        4.74598        0.38257
C          3.73754        4.58087       -0.14431
C          2.75985        4.75469        1.03530
C          3.43585        5.67114       -1.18889
H          5.30296        5.71279        0.86883
H          5.40798        3.96818        1.10930
H          5.90191        4.67870       -0.42531
H          2.95591        4.02341        1.81914
H          2.85919        5.74565        1.47774
H          1.72658        4.64111        0.70811
H          3.51282        6.66511       -0.74860
H          4.13137        5.62281       -2.02583
H          2.42742        5.55522       -1.58473
C          4.72239        0.00862       -4.44122
C          5.17609        1.29763       -3.72676
C          6.60679        1.09380       -3.19843
C          5.16612        2.44450       -4.75648
H          4.79382       -0.85600       -3.78220
H          3.69247        0.09480       -4.78679
H          5.34861       -0.19263       -5.31027
H          6.97689        1.99741       -2.71476
H          6.63568        0.28763       -2.46560
H          7.29094        0.84027       -4.00802
H          4.15651        2.63408       -5.11845
H          5.55054        3.37007       -4.33066
H          5.78795        2.19738       -5.61683
H         -2.34231        0.98600       -3.75628
H          0.55014        2.28261       -5.09002
H         -2.62770       -0.35956       -4.85666
H         -1.28844        0.74215       -5.15171
H          1.18392        0.85012       -4.27243
H          2.06531        2.36981       -4.19364
