111
-148.55847278
P         -2.45202        2.31481        0.58668
P          0.03555        0.36833        0.38925
C         -1.44267        2.00445        2.05412
C         -0.38018        1.13263        1.97020
C         -2.76162        4.12029        0.33857
C         -1.96947        4.64063       -0.84110
C         -1.75299        2.60372        3.25785
H         -2.58747        3.28387        3.31387
C         -0.99754        2.31900        4.38233
H         -1.23819        2.78541        5.32369
C          0.05777        1.43072        4.30097
H          0.64132        1.20267        5.17771
C          0.36475        0.83251        3.09189
H          1.17945        0.12942        3.01436
Pd        -1.52303        1.13332       -1.16315
Cl        -3.27010        1.79858       -2.40347
Cl        -0.57094       -0.16828       -2.72148
C         -4.29011        4.19038        0.16208
C         -4.19229        1.70843        0.78514
H         -2.15454        5.70430       -1.00886
H         -0.89595        4.50141       -0.69114
H         -2.24392        4.10925       -1.75442
H         -4.52192        4.15655       -0.91139
H         -4.67334        5.15933        0.51652
H         -4.43234        1.17589       -0.14470
C         -5.00650        3.01210        0.88048
C         -4.33785        0.78992        1.98062
H         -2.45636        4.62011        1.26703
H         -5.15053        3.26288        1.94036
H         -6.01801        2.86136        0.47380
H         -3.66457       -0.06673        1.91006
H         -4.09682        1.31541        2.90592
H         -5.35893        0.41263        2.07260
C         -0.87930       -4.08541        0.64529
C         -1.91865       -3.15769        0.37861
C         -1.60197       -1.81023        0.34723
C         -0.30555       -1.38563        0.47360
C          0.71721       -2.28401        0.62907
C          0.46859       -3.64536        0.68668
O         -1.19032       -5.44754        0.90093
C         -3.37196       -3.58590        0.11992
H         -2.37125       -1.07032        0.21322
H          1.72026       -1.90275        0.70850
C          1.65104       -4.61835        0.81777
C          4.42098        0.95099       -0.73261
C          3.53703        0.29342       -1.62783
C          2.21463        0.14612       -1.24713
C          1.74215        0.67962       -0.07630
C          2.56332        1.43616        0.72042
C          3.89734        1.62773        0.40087
O          5.82369        0.86139       -0.92448
C          3.95141       -0.24447       -3.00802
H          1.52504       -0.38639       -1.87782
H          2.15349        1.87522        1.61265
C          4.72659        2.56515        1.29465
C         -4.14022       -3.62170        1.44935
C         -4.07218       -2.58443       -0.82843
C         -3.42820       -4.96372       -0.56444
C          1.93936       -4.86954        2.30541
C          1.35416       -5.94880        0.10229
C          2.92092       -4.02934        0.16216
C         -1.46521       -5.73386        2.26634
H         -5.17957       -3.90861        1.29159
H         -3.69698       -4.33278        2.14226
H         -4.12948       -2.64272        1.92758
H         -4.22924       -1.61814       -0.35187
H         -3.48266       -2.42868       -1.73163
H         -5.05216       -2.95491       -1.12803
H         -2.85062       -4.95614       -1.48821
H         -3.02139       -5.74213        0.07619
H         -4.45402       -5.23933       -0.80763
H          1.07774       -5.30523        2.80548
H          2.78114       -5.55011        2.43073
H          2.18068       -3.93630        2.81380
H          0.51821       -6.46915        0.56319
H          1.10334       -5.77400       -0.94343
H          2.21642       -6.61415        0.13811
H          2.72027       -3.73143       -0.86611
H          3.29267       -3.16190        0.70564
H          3.72498       -4.76473        0.14601
H         -2.47330       -6.13728        2.35994
H         -0.76370       -6.48441        2.63018
H         -1.37670       -4.82995        2.87032
C          6.38900       -0.27946       -0.30056
C          5.33488        0.26580       -3.44653
C          3.95812       -1.78155       -2.97603
C          2.93574        0.23471       -4.06889
C          6.05304        2.97941        0.63397
C          3.92966        3.86197        1.55857
C          5.01537        1.87026        2.63539
H          5.37327        1.35383       -3.40705
H          6.12001       -0.11911       -2.80013
H          5.56424       -0.04636       -4.46511
H          4.24626       -2.19017       -3.94418
H          4.65804       -2.15611       -2.23116
H          2.96974       -2.16859       -2.73096
H          1.94290       -0.17621       -3.89464
H          2.85552        1.32124       -4.06074
H          3.24303       -0.07271       -5.06804
H          6.71351        2.12479        0.50704
H          5.87373        3.41188       -0.34976
H          6.58038        3.71653        1.23905
H          4.52718        4.57666        2.12398
H          3.64148        4.33359        0.61949
H          3.02409        3.67187        2.13226
H          4.08906        1.60158        3.14239
H          5.58331        2.52309        3.29774
H          5.59081        0.95810        2.48945
H          6.22758       -0.23503        0.77529
H          5.92549       -1.18576       -0.68771
H          7.45986       -0.30654       -0.50313
