111
-148.55442187
P         -1.36249        2.60954        1.21254
P         -0.29205       -0.28219        0.54319
C         -0.87952        1.49499        2.56101
C         -0.47653        0.20955        2.26777
C         -0.21210        4.05306        1.11127
C          0.59317        4.00465       -0.16962
C         -0.88619        1.93087        3.87052
H         -1.16529        2.94822        4.09094
C         -0.51292        1.06706        4.88577
H         -0.52185        1.40551        5.90899
C         -0.12334       -0.22529        4.58949
H          0.17202       -0.89563        5.37979
C         -0.09540       -0.65281        3.27410
H          0.23667       -1.64757        3.02117
Pd        -1.56518        1.24107       -0.63685
Cl        -2.63692        2.92478       -1.65793
Cl        -1.63470       -0.21151       -2.34915
C         -1.15456        5.26838        1.22169
C         -2.96443        3.48818        1.51519
H          1.25947        4.86620       -0.25553
H          1.20145        3.09949       -0.22349
H         -0.06633        4.00580       -1.03985
H         -1.35620        5.64876        0.21092
H         -0.65515        6.09352        1.75157
H         -3.47334        3.52011        0.54277
C         -2.50115        4.90212        1.90942
C         -3.83376        2.78726        2.53756
H          0.44077        3.98580        1.99149
H         -2.38282        4.94643        3.00077
H         -3.28028        5.64107        1.66726
H         -4.04912        1.75981        2.23530
H         -3.34306        2.74565        3.51025
H         -4.78498        3.30673        2.67393
C         -0.99636       -4.73016       -0.12680
C         -2.02896       -3.92142        0.41293
C         -1.76747       -2.57723        0.62537
C         -0.56756       -2.02562        0.25952
C          0.39248       -2.77990       -0.36294
C          0.19441       -4.12853       -0.60786
O         -1.14052       -6.14297       -0.15470
C         -3.40911       -4.48526        0.78551
H         -2.50046       -1.93764        1.08709
H          1.30780       -2.29683       -0.65666
C          1.26881       -4.91695       -1.37339
C          3.62098        1.45443       -1.00860
C          3.40332        1.34820        0.38920
C          2.21074        0.79839        0.82819
C          1.29331        0.30063       -0.05893
C          1.53852        0.31970       -1.40621
C          2.71021        0.85271       -1.91428
O          4.72652        2.19822       -1.50095
C          4.40763        1.86939        1.42849
H          1.96867        0.77751        1.87613
H          0.76545       -0.04125       -2.06196
C          2.93544        0.83225       -3.43365
C         -4.49918       -3.39960        0.63669
C         -3.80390       -5.64575       -0.14616
C         -3.38668       -4.96231        2.24545
C          2.01022       -3.99729       -2.36998
C          2.29014       -5.48689       -0.37781
C          0.63921       -6.05433       -2.19827
C         -0.65662       -6.79822        1.01088
H         -5.49234       -3.82724        0.77214
H         -4.38725       -2.61097        1.37918
H         -4.46177       -2.94688       -0.35384
H         -4.81083       -5.99978        0.07337
H         -3.77534       -5.32757       -1.18775
H         -3.12778       -6.49005       -0.03693
H         -4.35778       -5.35787        2.54200
H         -2.64598       -5.74459        2.39300
H         -3.13784       -4.13985        2.91573
H          2.61953       -3.25496       -1.85661
H          2.67978       -4.57534       -3.00647
H          1.30198       -3.47690       -3.01423
H          3.07155       -6.04268       -0.89546
H          2.76430       -4.68572        0.18866
H          1.81509       -6.15847        0.33329
H          0.16473       -6.79355       -1.55771
H         -0.11965       -5.66228       -2.87460
H          1.39192       -6.56955       -2.79443
H         -1.46707       -7.35612        1.47959
H          0.12686       -7.50380        0.73503
H         -0.25846       -6.07062        1.71923
C          4.45097        3.57676       -1.71944
C          4.30831        1.05588        2.73938
C          5.85462        1.72832        0.92272
C          4.09398        3.34034        1.74288
C          4.43395        0.74489       -3.77444
C          2.25950       -0.40416       -4.06874
C          2.31913        2.09675       -4.05174
H          5.10419        1.33569        3.42924
H          3.36455        1.23188        3.25358
H          4.39771       -0.01180        2.54067
H          6.06936        0.69326        0.65907
H          6.02897        2.33943        0.04088
H          6.56835        2.03940        1.68515
H          4.78644        3.73735        2.48465
H          4.16520        3.95904        0.85170
H          3.08297        3.44254        2.13659
H          4.58707        0.66846       -4.85063
H          4.97314        1.62245       -3.42751
H          4.88324       -0.12962       -3.30498
H          2.51354       -0.48371       -5.12543
H          2.58851       -1.31835       -3.57667
H          1.17385       -0.35046       -4.00496
H          2.44987        2.10642       -5.13344
H          2.77748        2.99697       -3.64966
H          1.25113        2.14672       -3.84020
H          5.12020        4.18490       -1.11114
H          4.62546        3.82413       -2.76641
H          3.41673        3.80480       -1.46057
