171
-217.83673532
P         -1.67992        0.64735        0.27920
P          1.44546       -0.22223       -0.27763
C         -0.94717        1.77020       -0.93468
C          0.56690       -0.92523       -1.69175
C         -0.32054        1.35693       -2.10414
C          0.29588        2.32349       -2.92104
C          0.24007        3.65746       -2.55421
C         -0.38847        4.04992       -1.39214
C         -0.97310        3.09824       -0.57913
C          0.69027       -2.25496       -2.01521
C          0.01210       -2.77344       -3.10060
C         -0.80870       -1.95675       -3.84944
C         -0.96775       -0.61873       -3.52938
C         -0.24239       -0.08519       -2.44651
Cl         2.14450        1.24177        2.61764
Cl        -0.91994        0.65281        3.50498
C         -1.88695        0.23170       -4.33479
C          1.02745        1.94557       -4.16152
H         -0.41571        5.09063       -1.11342
H         -1.44787        3.38742        0.34693
H          1.30529       -2.89760       -1.40996
H          0.11736       -3.81468       -3.35784
H          0.70924        4.39152       -3.18745
H         -1.33635       -2.35780       -4.69796
C         -2.79636       -3.59162       -0.87123
C         -1.73044       -3.41392        0.00146
C         -1.38406       -2.11290        0.34713
C         -2.06717       -1.04583       -0.18967
C         -3.12037       -1.24317       -1.04861
C         -3.51282       -2.52786       -1.40269
H         -3.08903       -4.59177       -1.13278
H         -0.57343       -1.92474        1.02761
H         -3.64299       -0.38322       -1.42956
C         -5.61063        2.54588        1.51645
C         -5.23466        2.55617        0.17770
C         -4.02100        1.97163       -0.16060
C         -3.22003        1.41109        0.80379
C         -3.60623        1.41414        2.11873
C         -4.81210        1.98082        2.50459
H         -6.54494        2.99265        1.79661
H         -3.68934        1.96321       -1.18592
H         -2.94619        0.99002        2.85304
C          3.98098       -3.48761        1.65728
C          3.16446       -2.72273        2.47984
C          2.38120       -1.74477        1.88467
C          2.42896       -1.51647        0.52918
C          3.27673       -2.25937       -0.25701
C          4.05465       -3.27382        0.28736
H          4.58266       -4.26593        2.08750
H          1.75009       -1.13888        2.50685
H          3.32720       -2.04511       -1.30954
C          4.32633        2.88452       -1.88422
C          3.55201        3.21006       -0.77807
C          2.68589        2.24365       -0.28560
C          2.59531        1.01386       -0.88661
C          3.35249        0.71707       -1.99347
C          4.23914        1.65085       -2.51708
H          5.02697        3.61001       -2.25377
H          2.08008        2.44204        0.57931
H          3.23054       -0.24431       -2.46040
Pd         0.24662        0.61476        1.59479
C          0.19861       -4.24211        1.43511
C         -1.01964       -4.64335        0.58682
C         -0.52953       -5.55955       -0.55056
C         -2.00829       -5.41205        1.48163
H          0.92535       -3.69613        0.83627
H         -0.10092       -3.61550        2.27403
H          0.69914       -5.12225        1.83841
H         -1.35669       -5.91524       -1.16316
H          0.16627       -5.03047       -1.19994
H         -0.01395       -6.43256       -0.15064
H         -1.53346       -6.28566        1.92792
H         -2.37117       -4.77539        2.28837
H         -2.87143       -5.75416        0.91155
C         -4.23910       -3.52130       -3.58941
C         -4.71509       -2.79484       -2.31945
C         -5.41355       -1.48524       -2.73391
C         -5.73829       -3.67153       -1.57296
H         -3.75031       -4.46416       -3.34664
H         -5.07690       -3.73880       -4.25168
H         -3.52786       -2.90683       -4.13906
H         -5.77669       -0.94507       -1.85994
H         -4.73588       -0.83485       -3.28573
H         -6.27017       -1.68901       -3.37621
H         -6.61961       -3.85195       -2.18825
H         -5.31452       -4.63941       -1.30814
H         -6.06261       -3.18483       -0.65330
C         -7.39779        3.78717       -0.36386
C         -6.09114        3.19450       -0.92520
C         -6.45094        2.12514       -1.97330
C         -5.28852        4.32570       -1.59516
H         -8.00622        3.01689        0.10972
H         -7.19205        4.56650        0.36969
H         -7.99295        4.23377       -1.16033
H         -7.07500        2.54566       -2.76164
H         -5.55767        1.71310       -2.44127
H         -6.99840        1.30361       -1.51181
H         -5.87554        4.81297       -2.37344
H         -5.00407        5.08124       -0.86307
H         -4.37632        3.94609       -2.05430
C         -5.26690        0.51675        4.48832
C         -5.20135        1.97256        3.98985
C         -6.57348        2.63234        4.22556
C         -4.14054        2.74689        4.79454
H         -4.30103        0.02199        4.39328
H         -5.55959        0.47624        5.53731
H         -5.99387       -0.05509        3.91196
H         -6.83490        2.61283        5.28353
H         -6.56778        3.67465        3.90729
H         -7.35935        2.10800        3.68217
H         -4.06185        3.77401        4.43905
H         -4.39666        2.77403        5.85343
H         -3.15818        2.28531        4.70149
C          3.65266       -1.55161        4.63567
C          3.15137       -2.86691        4.00961
C          4.06397       -4.01491        4.48115
C          1.71973       -3.15290        4.49896
H          4.65822       -1.31811        4.28675
H          3.00594       -0.71622        4.36974
H          3.67863       -1.62060        5.72288
H          3.74457       -4.96760        4.05891
H          5.09967       -3.83738        4.19219
H          4.03699       -4.10901        5.56670
H          1.03313       -2.35800        4.21033
H          1.35029       -4.08962        4.08373
H          1.69056       -3.23596        5.58520
C          4.95205       -3.71180       -2.05426
C          4.95690       -4.16261       -0.58003
C          4.44562       -5.61297       -0.50982
C          6.40404       -4.09191       -0.05809
H          5.30785       -2.68616       -2.14964
H          5.60537       -4.34480       -2.65457
H          3.95154       -3.77363       -2.48216
H          3.41594       -5.67492       -0.86219
H          5.05493       -6.27256       -1.12742
H          4.47205       -5.99159        0.51143
H          6.76670       -3.06420       -0.06988
H          6.47771       -4.46146        0.96385
H          7.07103       -4.69223       -0.67664
C          5.11586        4.77117        0.40249
C          3.68128        4.59342       -0.12609
C          2.70109        4.75859        1.05267
C          3.37151        5.68111       -1.17088
H          5.23552        5.73891        0.88924
H          5.35575        3.99523        1.12924
H          5.84509        4.71064       -0.40456
H          2.90177        4.02781        1.83582
H          2.79259        5.74973        1.49640
H          1.66904        4.63770        0.72437
H          4.06763        5.63808       -2.00760
H          2.36414        5.55754       -1.56694
H          3.44071        6.67567       -0.73064
C          4.68693        0.04791       -4.44095
C          5.15515        1.31934       -3.70456
C          6.58123        1.08970       -3.17523
C          5.16173        2.48176       -4.71699
H          3.65600        0.14928       -4.77922
H          5.30717       -0.14250       -5.31671
H          4.75443       -0.82949       -3.79890
H          6.59837        0.26814       -2.45912
H          7.26594        0.84569       -3.98727
H          6.95826        1.97948       -2.67161
H          5.77355        2.23567       -5.58479
H          4.15358        2.69604       -5.06938
H          5.56723        3.39316       -4.28031
H         -1.38342        0.62007       -5.22093
H          2.00172        2.43413       -4.19531
H         -2.25209        1.07960       -3.75306
H         -2.75624       -0.33709       -4.66788
H          0.47079        2.24613       -5.05027
H          1.19791        0.86979       -4.21563
