105
-153.06409542
Cl         2.58542        2.99984       -0.15239
Pd         0.70374        1.88108       -0.67928
P         -1.16995        0.62992       -1.40970
N         -1.60514       -1.02654       -1.07887
C         -0.75386       -2.07351       -1.41822
C         -0.50942       -3.08026       -0.44766
C          0.46684       -4.06198       -0.68980
C          0.80041       -5.04734        0.40070
C          2.19863       -5.66368        0.24740
C          2.39863       -6.18824       -1.17857
C          2.24967       -5.05990       -2.21412
C          1.16350       -4.05817       -1.90238
C          0.89786       -3.06595       -2.84342
C         -0.03483       -2.08803       -2.61013
H         -0.20983       -1.31042       -3.33056
H          1.45432       -3.06402       -3.76551
H          3.19934       -4.51857       -2.30341
H          3.37577       -6.68186       -1.27670
H          2.95664       -4.90018        0.46326
H          0.70837       -4.55062        1.37490
C         -1.07148       -2.83402        0.90758
C         -0.49452       -1.76363        1.63276
C         -1.07645       -1.35910        2.82668
C         -2.20177       -1.99042        3.29365
C         -2.79643       -3.03503        2.58886
C         -4.03729       -3.67437        3.16094
C         -4.84132       -4.49865        2.14146
C         -3.91573       -5.37276        1.28759
C         -2.89721       -4.50961        0.52641
C         -2.23653       -3.45740        1.37959
H         -2.12500       -5.14242        0.07304
H         -4.49793       -5.99516        0.59347
H         -5.40227       -3.81964        1.48695
H         -4.67004       -2.89092        3.59735
H         -2.64438       -1.67344        4.22282
H         -0.63569       -0.54875        3.37601
N          0.61890       -1.14431        1.07686
P          1.29399        0.46518        1.09630
C          3.04505        0.19379        0.81374
C          3.99362        0.69714        1.67118
C          5.33495        0.47964        1.41523
C          5.73398       -0.23704        0.29495
C          4.76031       -0.74144       -0.55647
C          3.41883       -0.52129       -0.30030
H          2.66416       -0.90370       -0.96987
H          5.05858       -1.30643       -1.42307
C          7.17739       -0.49218        0.03210
H          6.08234        0.86878        2.08537
H          3.68338        1.26562        2.53257
C          1.02084        1.27271        2.66915
C          1.40671        0.62852        3.82061
C          1.17044        1.21818        5.04967
C          0.55574        2.46054        5.13057
C          0.17623        3.09533        3.95587
C          0.41383        2.50513        2.72842
H          0.11992        3.00084        1.81737
H         -0.31088        4.05410        4.00804
C          0.27006        3.08267        6.45298
H          1.45923        0.71280        5.95536
H          1.87837       -0.33976        3.75268
H          0.92966       -1.50548        0.18718
H         -1.96359       -1.03642       -0.13484
C         -1.45670        0.95345       -3.14696
C         -2.74920        0.93989       -3.61440
C         -2.99557        1.14938       -4.95971
C         -1.94716        1.35697       -5.84588
C         -0.64886        1.36040       -5.35431
C         -0.40449        1.15141       -4.00937
H          0.60416        1.15213       -3.62701
H          0.17055        1.53208       -6.03123
C         -2.21193        1.61064       -7.28921
H         -4.00664        1.15088       -5.32961
H         -3.55964        0.75578       -2.92620
C         -2.18274        1.64147       -0.32164
C         -2.93230        2.71041       -0.75072
C         -3.63077        3.46708        0.17227
C         -3.58289        3.15853        1.52629
C         -2.80711        2.08469        1.94058
C         -2.10871        1.33145        1.01661
H         -1.47063        0.52221        1.33044
H         -2.73987        1.85197        2.98959
C         -4.30264        3.99801        2.52327
H         -4.21222        4.31238       -0.15401
H         -2.94965        2.96244       -1.79801
Cl         0.10944        3.47439       -2.14905
H          2.06058       -5.48213       -3.20931
H          2.36158       -6.46091        0.98634
H          1.65501       -6.96921       -1.38169
H          0.04642       -5.84275        0.40231
H         -3.38115       -6.07725        1.93703
H         -3.39215       -4.00988       -0.31497
H         -3.74222       -4.31391        4.00137
H         -5.59974       -5.11336        2.64665
H          7.50241       -1.41395        0.51651
H          7.37209       -0.58672       -1.03710
H          7.79614        0.32312        0.40951
H         -0.72530        2.80654        6.80372
H          0.99295        2.76171        7.20427
H          0.31617        4.17098        6.39358
H         -3.12433        1.11015       -7.61646
H         -2.32682        2.67856       -7.47947
H         -1.39308        1.24429       -7.90996
H         -5.19271        4.45309        2.08664
H         -4.62131        3.40368        3.38079
H         -3.65956        4.79940        2.88965
