87
-129.18870767
P         -1.60704       -0.35298       -0.22788
P          1.59621        0.35993       -0.09273
C         -1.34472        0.93049       -1.46701
C          1.42626       -0.69372       -1.54250
C         -0.35097        0.81971       -2.43507
C         -0.13904        1.89773       -3.31698
C         -0.93995        3.02256       -3.21772
C         -1.92930        3.10795       -2.26249
C         -2.12356        2.05964       -1.38525
C          2.21784       -1.81323       -1.62809
C          2.08941       -2.67689       -2.69768
C          1.15538       -2.41564       -3.67699
C          0.34411       -1.29556       -3.60991
C          0.48771       -0.40513       -2.52744
Cl         1.20831        0.81293        3.12023
Cl        -1.45402       -1.04314        2.96484
H         -2.54098        3.99249       -2.19270
H         -2.88876        2.12499       -0.63001
H          2.94075       -2.01483       -0.85536
H          2.71037       -3.55540       -2.76125
H         -0.77474        3.84238       -3.89609
H          1.04300       -3.09204       -4.50729
C         -1.40375       -4.55125       -1.95227
C         -0.64856       -4.23967       -0.82985
C         -0.73710       -2.95528       -0.30820
C         -1.55357       -2.01677       -0.89579
C         -2.30919       -2.33665       -1.99915
C         -2.23504       -3.61133       -2.52966
H         -1.33275       -5.53938       -2.37386
C          0.27814       -5.23353       -0.22349
H         -0.15638       -2.69069        0.55884
H         -2.93725       -1.58394       -2.44927
H         -2.81776       -3.86703       -3.39938
C         -5.50865        0.41947        1.99454
C         -5.40988       -0.65599        1.13405
C         -4.22644       -0.89440        0.46116
C         -3.15360       -0.05483        0.64904
C         -3.24920        1.01571        1.50846
C         -4.42764        1.26532        2.20078
H         -6.43006        0.60790        2.51870
H         -6.25344       -1.31073        0.98848
H         -4.13327       -1.73500       -0.20648
H         -2.39776        1.65939        1.65717
C         -4.52562        2.43181        3.11972
C          5.18828       -0.97027        2.37516
C          5.21359        0.25086        1.73080
C          4.12605        0.65794        0.98137
C          3.02532       -0.15951        0.87719
C          2.99648       -1.37499        1.52196
C          4.07653       -1.79658        2.28740
H          6.03516       -1.29030        2.95794
H          6.07894        0.88781        1.81400
H          4.12848        1.61264        0.48176
H          2.12527       -2.00356        1.43919
C          4.04413       -3.11946        2.96834
C          1.79408        4.76018       -1.19958
C          2.64434        3.85894       -1.80999
C          2.59235        2.52044       -1.46733
C          1.69776        2.09997       -0.51151
C          0.85888        2.99658        0.10858
C          0.88395        4.34156       -0.23860
H          1.83032        5.80227       -1.46780
H          3.34300        4.19638       -2.55791
H          3.23460        1.79903       -1.94780
H          0.17196        2.65174        0.86279
C         -0.02816        5.30881        0.42960
Pd        -0.05642       -0.08110        1.49694
C          0.93236        1.85966       -4.35106
C         -0.66406       -1.06335       -4.68136
H          1.65265        1.06543       -4.15223
H          0.51022        1.69311       -5.34280
H          1.48221        2.80154       -4.37501
H         -1.20826       -1.98127       -4.90787
H         -1.39735       -0.31253       -4.38512
H         -0.18425       -0.72334       -5.59989
H         -0.02926       -6.25431       -0.45478
H          1.29323       -5.09351       -0.59805
H          0.30390       -5.13230        0.86255
H         -4.70932        3.35088        2.56143
H         -5.33794        2.30434        3.83654
H         -3.60180        2.55994        3.68587
H          3.04522       -3.33775        3.34903
H          4.32395       -3.91732        2.27896
H          4.73330       -3.14629        3.81350
H         -0.24654        6.15808       -0.21937
H         -0.97762        4.83690        0.68750
H          0.41855        5.69102        1.34844
