105
-153.06028660
Cl         0.57298        3.69300        1.50129
Pd        -0.13202        1.96181        0.24283
P         -0.72486        0.25203       -1.29540
N          0.15498       -1.13997       -1.95287
C          0.24347       -2.47301       -1.56373
C         -0.09959       -2.96814       -0.27544
C          0.21219       -4.30631        0.05303
C          0.06485       -4.77692        1.48206
C         -0.08746       -6.29910        1.60876
C          1.03572       -7.01058        0.84862
C          1.02334       -6.62688       -0.64073
C          0.73463       -5.16898       -0.91394
C          0.99265       -4.67956       -2.18701
C          0.77360       -3.36301       -2.49738
H          1.01962       -2.99587       -3.47882
H          1.39295       -5.34760       -2.93096
H          1.98358       -6.88696       -1.10421
H          2.00187       -6.73309        1.28874
H         -0.10725       -6.60782        2.66357
H          0.94961       -4.44901        2.04095
C         -0.69898       -2.10896        0.78113
C          0.11363       -1.12210        1.39805
C         -0.36106       -0.45207        2.52605
C         -1.61285       -0.72045        3.01574
C         -2.44563       -1.65341        2.40444
C         -3.80534       -1.89645        3.01761
C         -4.73106       -2.82558        2.21112
C         -3.94425       -3.94832        1.52733
C         -2.87868       -3.35815        0.59407
C         -1.99090       -2.35119        1.28172
H         -2.27297       -4.15636        0.14973
H         -4.61646       -4.62450        0.98031
H         -5.25917       -2.24223        1.44747
H         -4.29273       -0.92605        3.17628
H         -1.97173       -0.19393        3.88381
H          0.25679        0.29563        2.98858
N          1.27927       -0.74397        0.73758
P          1.80987        0.87776        0.98802
C          2.91662        1.37544       -0.32566
C          3.12224        2.71466       -0.55630
C          3.89119        3.11507       -1.63332
C          4.44354        2.17480       -2.49316
C          4.22654        0.82656       -2.23987
C          3.45836        0.42796       -1.16090
H          3.26871       -0.61678       -0.97458
H          4.65659        0.09073       -2.89769
C          5.27686        2.60353       -3.65031
H          4.05400        4.16255       -1.82098
H          2.64128        3.43675        0.08458
C          2.59505        0.96158        2.59660
C          2.49104        2.07611        3.39285
C          3.10625        2.09947        4.62967
C          3.82554        1.00065        5.08056
C          3.92582       -0.11470        4.25935
C          3.30800       -0.13417        3.02108
H          3.36803       -1.00220        2.38311
H          4.48944       -0.96822        4.59532
C          4.51047        1.03299        6.40255
H          3.03119        2.97346        5.25390
H          1.92232        2.92017        3.04220
H          1.14040       -0.83866       -0.26755
H          0.37284       -0.92814       -2.91867
C         -0.60157        1.44991       -2.63266
C          0.65917        1.85314       -3.00211
C          0.81617        2.78366       -4.01278
C         -0.29163        3.31953       -4.65513
C         -1.55651        2.89168       -4.27360
C         -1.71071        1.96122       -3.26264
H         -2.69211        1.64010       -2.95491
H         -2.42134        3.29614       -4.77118
C         -0.12637        4.30825       -5.75627
H          1.80254        3.10301       -4.30267
H          1.51684        1.45203       -2.48708
C         -2.45097       -0.21037       -1.16763
C         -2.96283       -1.02429       -2.14993
C         -4.30109       -1.37613       -2.12556
C         -5.13313       -0.91390       -1.11549
C         -4.59669       -0.09307       -0.13214
C         -3.25966        0.25655       -0.15936
H         -2.84461        0.89537        0.60279
H         -5.23223        0.27391        0.65547
C         -6.56846       -1.30950       -1.08758
H         -4.70667       -2.01669       -2.88991
H         -2.30992       -1.38408       -2.92964
Cl        -2.04675        3.04468       -0.20838
H          0.27385       -7.22944       -1.16782
H         -1.05685       -6.60217        1.19345
H          0.95897       -8.10008        0.97248
H         -0.77878       -4.27314        1.96557
H         -3.45655       -4.56807        2.29012
H         -3.36710       -2.86657       -0.25343
H         -3.65604       -2.31303        4.02102
H         -5.51942       -3.24211        2.85377
H          5.19333        1.89787       -4.47808
H          4.96578        3.58227       -4.01835
H          6.32837        2.66855       -3.36754
H          4.57057        0.03518        6.83939
H          5.52594        1.41878        6.30311
H          3.97562        1.67073        7.10772
H         -0.94830        5.02540       -5.76667
H          0.80148        4.87102       -5.64474
H         -0.10260        3.80849       -6.72558
H         -7.06483       -1.03642       -2.01979
H         -6.67113       -2.38747       -0.95439
H         -7.10112       -0.81989       -0.27123
