105
-153.06959848
Cl         0.44840        3.18627        2.42554
Pd        -0.19851        1.83547        0.75089
P         -0.73019        0.49517       -1.13924
N          0.40691       -0.77168       -1.58783
C          0.49006       -2.16096       -1.40383
C         -0.04081       -2.84897       -0.27953
C          0.27957       -4.20908       -0.08279
C         -0.09995       -4.88062        1.21632
C          0.78272       -6.09246        1.54593
C          0.82611       -7.05260        0.35333
C          1.39456       -6.35972       -0.89735
C          1.02496       -4.90127       -1.04089
C          1.49916       -4.21675       -2.15299
C          1.26073       -2.87732       -2.31789
H          1.67069       -2.35339       -3.16410
H          2.09003       -4.74984       -2.87870
H          2.48868       -6.43504       -0.88944
H          1.40632       -7.95290        0.59996
H          1.79957       -5.74930        1.77426
H         -0.05417       -4.14577        2.02993
C         -0.73860       -2.10637        0.79755
C          0.01554       -1.18507        1.56363
C         -0.59610       -0.53215        2.63228
C         -1.90911       -0.77800        2.94087
C         -2.66874       -1.68177        2.20522
C         -4.09873       -1.92245        2.63599
C         -4.90616       -2.89573        1.75374
C         -4.01050       -3.97223        1.13042
C         -2.90356       -3.30658        0.30391
C         -2.08292       -2.34911        1.12653
H         -2.26525       -4.05169       -0.18300
H         -4.59525       -4.67469        0.51992
H         -5.40132       -2.33624        0.95076
H         -4.61033       -0.95323        2.69105
H         -2.36976       -0.26327        3.76696
H         -0.02576        0.18210        3.19891
N          1.33513       -0.91762        1.20054
P          1.85653        0.75595        1.07326
C          2.70178        1.02325       -0.48381
C          2.39772        2.13632       -1.23142
C          2.90887        2.26453       -2.50895
C          3.72714        1.28011       -3.04457
C          4.03376        0.17045       -2.26880
C          3.52816        0.04575       -0.98733
H          3.74669       -0.82682       -0.39202
H          4.66121       -0.60231       -2.67933
C          4.22493        1.39069       -4.44346
H          2.65381        3.12205       -3.10809
H          1.74374        2.89233       -0.82669
C          2.84599        1.26523        2.47084
C          2.87335        0.46597        3.58787
C          3.61784        0.85011        4.68887
C          4.33233        2.04091        4.67554
C          4.29946        2.82777        3.53147
C          3.55468        2.44152        2.43157
H          3.51646        3.05463        1.54504
H          4.85837        3.74763        3.50838
C          5.15110        2.44712        5.85124
H          3.64743        0.22631        5.56581
H          2.31737       -0.45792        3.58760
H          1.64820       -1.36643        0.34710
H          1.26039       -0.27901       -1.82414
C         -0.60575        1.70581       -2.46365
C         -1.05682        2.99435       -2.30744
C         -0.92539        3.90290       -3.33974
C         -0.34126        3.52651       -4.54162
C          0.08365        2.21386       -4.69377
C         -0.04874        1.30842       -3.65641
H          0.28710        0.29071       -3.77082
H          0.52285        1.90606       -5.62728
C         -0.21252        4.49938       -5.66142
H         -1.27745        4.91300       -3.21777
H         -1.51593        3.28195       -1.37718
C         -2.38441       -0.17979       -1.29744
C         -2.58089       -1.07005       -2.32738
C         -3.84677       -1.57167       -2.57782
C         -4.92566       -1.18287       -1.79568
C         -4.70892       -0.28010       -0.76305
C         -3.44556        0.22545       -0.52424
H         -3.28929        0.96158        0.24413
H         -5.53840        0.03434       -0.15301
C         -6.27850       -1.75291       -2.04441
H         -4.00196       -2.27495       -3.37801
H         -1.73850       -1.36864       -2.93166
Cl        -2.23178        2.77184        0.65040
H          1.07381       -6.89067       -1.80266
H          0.43070       -6.60425        2.45283
H         -0.19034       -7.40877        0.14286
H         -1.14532       -5.20264        1.16672
H         -3.55687       -4.57392        1.92770
H         -3.35883       -2.74795       -0.51783
H         -4.08060       -2.29790        3.66628
H         -5.72137       -3.35655        2.32886
H          3.52102        0.93431       -5.14088
H          4.35621        2.43419       -4.73319
H          5.18743        0.89073       -4.56015
H          5.21439        3.53330        5.93025
H          4.71848        2.07322        6.78026
H          6.16601        2.05550        5.77059
H          0.66321        4.28022       -6.27399
H         -1.09173        4.46634       -6.30622
H         -0.10732        5.51873       -5.28736
H         -6.52510       -1.72274       -3.10670
H         -6.32694       -2.79243       -1.71657
H         -7.04896       -1.19641       -1.50893
