111
-148.55147611
P         -2.55820        2.08945        0.77381
P          0.13375        0.44246        0.47936
C         -1.47759        1.84930        2.21423
C         -0.29156        1.16290        2.07267
C         -3.47341        3.69431        0.92273
C         -3.32735        4.54114       -0.32189
C         -1.84333        2.33521        3.45386
H         -2.78052        2.85448        3.56815
C         -1.01366        2.13966        4.54458
H         -1.29955        2.51977        5.51176
C          0.17742        1.45547        4.39656
H          0.82217        1.30097        5.24603
C          0.53739        0.96072        3.15613
H          1.45609        0.41029        3.02503
Pd        -1.30530        1.39949       -1.05253
Cl        -2.92023        2.23084       -2.36635
Cl         0.03920        0.81066       -2.75255
C         -4.92130        3.24120        1.20440
C         -3.97756        0.90071        0.74241
H         -3.82854        5.50581       -0.21278
H         -2.27660        4.72853       -0.55469
H         -3.77092        4.03823       -1.18202
H         -5.62367        3.97735        0.78686
H         -5.10856        3.23617        2.28825
H         -3.85930        0.28780       -0.16192
C         -5.20615        1.82595        0.62760
C         -3.97324        0.02477        1.97635
H         -3.04694        4.22141        1.78666
H         -6.06319        1.36384        1.13884
H         -5.50464        1.91832       -0.42710
H         -4.80242       -0.68670        1.96738
H         -3.04266       -0.54181        2.05435
H         -4.06572        0.63091        2.87945
C         -1.14894       -3.92448        0.25793
C         -1.03667       -3.29563        1.52494
C         -0.63037       -1.97223        1.56783
C         -0.41373       -1.26349        0.41564
C         -0.62907       -1.83632       -0.80974
C         -1.03378       -3.15338       -0.92643
O         -1.33619       -5.32994        0.17565
C         -1.31160       -4.03848        2.84181
H         -0.46688       -1.47666        2.50825
H         -0.46267       -1.23171       -1.68436
C         -1.30816       -3.72291       -2.32650
C          4.52959        0.79533       -0.66953
C          3.79595       -0.37427       -0.99990
C          2.46110       -0.43020       -0.63916
C          1.87240        0.57771        0.07834
C          2.60483        1.65783        0.49679
C          3.94961        1.77407        0.18192
O          5.80450        1.02006       -1.24943
C          4.38702       -1.58847       -1.73595
H          1.85683       -1.27074       -0.93271
H          2.11039        2.41927        1.07587
C          4.73374        2.94711        0.79506
C         -0.01301       -4.69435        3.33491
C         -1.81357       -3.06086        3.92880
C         -2.40760       -5.10394        2.65809
C         -0.00137       -4.27888       -2.91263
C         -2.38234       -4.82427       -2.27808
C         -1.84003       -2.61671       -3.26740
C         -0.12404       -6.07101        0.11094
H         -0.17415       -5.22157        4.27488
H          0.36713       -5.40970        2.60959
H          0.76027       -3.94371        3.49675
H         -2.11554       -3.60222        4.82510
H         -1.03955       -2.35570        4.22785
H         -2.67535       -2.49626        3.57471
H         -2.64949       -5.58492        3.60552
H         -3.31802       -4.65364        2.26386
H         -2.09317       -5.88117        1.96596
H         -0.16263       -4.68421       -3.91115
H          0.75225       -3.49505       -2.98451
H          0.40504       -5.07171       -2.28907
H         -2.62237       -5.18204       -3.27899
H         -2.04922       -5.67875       -1.69454
H         -3.29795       -4.44675       -1.82403
H         -2.16187       -3.03938       -4.21876
H         -2.69345       -2.10600       -2.82212
H         -1.07609       -1.87375       -3.49121
H         -0.08997       -6.63803       -0.81914
H          0.73520       -5.40080        0.15964
H         -0.08265       -6.77604        0.94106
C          5.73164        1.71550       -2.48290
C          5.92526       -1.57768       -1.74019
C          3.94599       -2.88810       -1.02480
C          3.86611       -1.60836       -3.18276
C          4.39538        3.06016        2.29845
C          6.25647        2.75061        0.69263
C          4.33537        4.25408        0.09020
H          6.31161       -1.49397       -0.72501
H          6.32342       -2.49086       -2.18192
H          6.31216       -0.73913       -2.31423
H          4.41881       -3.75860       -1.47885
H          4.22621       -2.86436        0.02789
H          2.86933       -3.03908       -1.08347
H          4.17748       -0.71811       -3.72550
H          4.24175       -2.47844       -3.72055
H          2.77732       -1.64422       -3.20373
H          4.99677        3.83408        2.77474
H          3.35000        3.31702        2.46098
H          4.59432        2.11826        2.80895
H          6.79107        3.54134        1.21847
H          6.55054        1.79503        1.12537
H          6.58720        2.76324       -0.34317
H          4.57329        4.21752       -0.97106
H          4.86052        5.10535        0.52263
H          3.26538        4.43667        0.18430
H          5.27653        2.69323       -2.33465
H          6.73735        1.84295       -2.88394
H          5.12855        1.15318       -3.19375
