111
-148.55737002
P         -2.57259        1.89241        1.11307
P          0.17296        0.48203        0.44112
C         -1.41498        1.50230        2.45240
C         -0.19335        0.94265        2.14683
C         -3.47639        3.47590        1.43292
C         -2.92526        4.61365        0.60158
C         -1.74588        1.75651        3.76818
H         -2.71013        2.17545        4.00449
C         -0.84478        1.45642        4.77527
H         -1.10224        1.65458        5.80293
C          0.38224        0.90173        4.46573
H          1.08260        0.66568        5.24994
C          0.70690        0.63941        3.14713
H          1.65289        0.18974        2.89036
Pd        -1.37385        1.64446       -0.84366
Cl        -3.09204        2.56705       -1.94684
Cl        -0.06411        1.27247       -2.62951
C         -4.93745        3.09877        1.12642
C         -3.99841        0.71924        0.97902
H         -3.01779        4.39735       -0.46332
H         -3.46140        5.54560        0.79526
H         -1.86608        4.78110        0.81089
H         -5.14682        3.32917        0.07265
H         -5.62729        3.72747        1.70987
H         -4.06749        0.44654       -0.08270
C         -5.20289        1.58830        1.38791
C         -3.78800       -0.50964        1.83658
H         -3.35730        3.69119        2.50230
H         -5.40440        1.43230        2.45664
H         -6.11146        1.25327        0.86487
H         -4.64407       -1.18617        1.78313
H         -2.90141       -1.06327        1.52191
H         -3.64733       -0.23254        2.88297
C         -1.22976       -3.79936       -0.24584
C         -0.95809       -3.35041        1.07194
C         -0.51275       -2.05091        1.24416
C         -0.39559       -1.19732        0.17924
C         -0.74104       -1.59963       -1.08278
C         -1.20842       -2.87900       -1.32481
O         -1.48749       -5.17510       -0.48694
C         -1.11064       -4.25862        2.30182
H         -0.24677       -1.68568        2.22024
H         -0.63131       -0.89015       -1.88403
C         -1.66812       -3.24377       -2.74481
C          4.60137        0.65411       -0.59934
C          4.07454       -0.46141        0.10454
C          2.71778       -0.47715        0.38178
C          1.91703        0.58961        0.06654
C          2.44441        1.72209       -0.49522
C          3.79153        1.80230       -0.80920
O          5.90319        0.58883       -1.15907
C          4.91779       -1.65198        0.59189
H          2.26458       -1.34071        0.83949
H          1.78197        2.54334       -0.71043
C          4.31946        3.13261       -1.37228
C         -1.42555       -3.42551        3.56556
C         -2.27486       -5.24827        2.11528
C          0.20257       -5.02096        2.53479
C         -2.25982       -2.00480       -3.45691
C         -0.46428       -3.74819       -3.55452
C         -2.77564       -4.31245       -2.71440
C         -0.32648       -5.93556       -0.79704
H         -0.58110       -2.80440        3.86071
H         -2.28706       -2.77925        3.40079
H         -1.65354       -4.07580        4.40979
H         -3.20195       -4.71490        1.90756
H         -2.08845       -5.92819        1.28758
H         -2.42360       -5.85170        3.01038
H          0.13179       -5.66129        3.41367
H          0.45091       -5.64804        1.68205
H          1.02886       -4.32693        2.68779
H         -1.49744       -1.25682       -3.66876
H         -2.70712       -2.28326       -4.41069
H         -3.03411       -1.53999       -2.84703
H         -0.02310       -4.63065       -3.09710
H         -0.75820       -4.00650       -4.57150
H          0.30930       -2.98266       -3.61071
H         -3.14488       -4.52291       -3.71781
H         -2.41437       -5.24763       -2.29437
H         -3.61563       -3.97660       -2.10724
H          0.56438       -5.30814       -0.74673
H         -0.23158       -6.75970       -0.09011
H         -0.41882       -6.35550       -1.79840
C          5.91179        0.04086       -2.46692
C          6.42691       -1.35536        0.55492
C          4.55625       -1.96807        2.06060
C          4.61267       -2.88445       -0.27587
C          3.77315        4.30364       -0.52567
C          5.85466        3.22258       -1.32296
C          3.83972        3.29584       -2.82424
H          6.99882       -2.17252        0.99395
H          6.77773       -1.21985       -0.46530
H          6.65314       -0.44524        1.10934
H          5.19370       -2.75851        2.45603
H          4.68702       -1.08600        2.68687
H          3.52522       -2.30312        2.16158
H          4.86925       -2.70546       -1.31819
H          5.17913       -3.75059        0.06527
H          3.55381       -3.13843       -0.23360
H          4.02708        4.16928        0.52541
H          4.19721        5.25182       -0.85528
H          2.69069        4.38959       -0.60325
H          6.21797        3.03970       -0.31230
H          6.31434        2.48857       -1.98040
H          6.20078        4.20725       -1.63633
H          4.22360        2.49861       -3.45758
H          4.17345        4.24585       -3.24068
H          2.75193        3.26770       -2.88011
H          6.93692        0.00852       -2.83652
H          5.50182       -0.96758       -2.45297
H          5.30804        0.65453       -3.13329
