171
-217.84661942
P         -1.60049        0.41857       -0.26992
P          1.59551       -0.38878       -0.30547
C         -0.86967        1.38271       -1.59681
C          0.83960       -1.34230       -1.62603
C         -0.09929        0.77052       -2.57926
C          0.52474        1.57810       -3.54940
C          0.33078        2.94919       -3.51612
C         -0.45365        3.53403       -2.54440
C         -1.04679        2.74448       -1.57923
C          1.00609       -2.70545       -1.63145
C          0.40329       -3.47414       -2.60733
C         -0.37419       -2.86699       -3.57094
C         -0.55657       -1.49386       -3.58156
C          0.07043       -0.70858       -2.59512
Cl         1.70347        0.49388        2.80329
Cl        -1.52693       -0.32433        2.95245
C         -1.39470       -0.87313       -4.64381
C          1.38972        0.98986       -4.60861
H         -0.60034        4.60165       -2.53399
H         -1.65022        3.19239       -0.80619
H          1.61253       -3.17107       -0.87181
H          0.54220       -4.54277       -2.61568
H          0.80823        3.56128       -4.26268
H         -0.85234       -3.46280       -4.33010
C         -3.84697       -3.27242       -1.59985
C         -2.88877       -3.39248       -0.60185
C         -2.20273       -2.24650       -0.22015
C         -2.45520       -1.04826       -0.83975
C         -3.39697       -0.94770       -1.83487
C         -4.12203       -2.06591       -2.23091
H         -4.41217       -4.14239       -1.87921
H         -1.47846       -2.27311        0.57526
H         -3.56979        0.01451       -2.28618
C         -4.47005        2.88328        2.23701
C         -4.97946        1.90413        1.39469
C         -4.07736        1.17604        0.63036
C         -2.73017        1.43220        0.70151
C         -2.24519        2.41107        1.53406
C         -3.11053        3.15284        2.32895
H         -5.15148        3.44170        2.85221
H         -4.41985        0.38829       -0.01593
H         -1.18219        2.57315        1.57860
C          4.38518       -2.90318        2.24733
C          3.02465       -3.18525        2.27089
C          2.19228       -2.43324        1.45201
C          2.70126       -1.42244        0.67444
C          4.04593       -1.14584        0.68020
C          4.91992       -1.89083        1.46102
H          5.05174       -3.47623        2.86377
H          1.13303       -2.62410        1.43209
H          4.40802       -0.33092        0.07995
C          3.93096        3.20311       -1.75008
C          2.94455        3.38938       -0.79016
C          2.23369        2.27406       -0.36509
C          2.48930        1.04070       -0.90987
C          3.45460        0.87569       -1.87330
C          4.20479        1.96183       -2.30989
H          4.51965        4.04835       -2.05532
H          1.48221        2.35399        0.40107
H          3.62462       -0.11148       -2.26851
Pd         0.02358        0.02842        1.37570
C         -2.32210       -5.80752       -0.99688
C         -2.64915       -4.74916        0.07310
C         -3.91650       -5.16075        0.84266
C         -1.47092       -4.68112        1.06213
H         -1.44643       -5.51261       -1.57367
H         -2.11350       -6.77383       -0.53802
H         -3.15039       -5.94209       -1.69121
H         -3.77355       -6.11555        1.34832
H         -4.16851       -4.41373        1.59519
H         -4.76941       -5.26067        0.17212
H         -1.27683       -5.65824        1.50419
H         -0.56324       -4.35604        0.55498
H         -1.68148       -3.98778        1.87596
C         -6.58939       -2.29000       -2.58302
C         -5.24627       -1.99168       -3.27433
C         -4.99874       -3.03219       -4.38330
C         -5.32967       -0.59566       -3.92187
H         -7.41486       -2.23460       -3.29246
H         -6.59296       -3.28630       -2.14213
H         -6.78054       -1.57215       -1.78618
H         -4.03457       -2.86938       -4.86228
H         -5.00636       -4.04652       -3.98662
H         -5.76967       -2.97232       -5.15137
H         -6.11707       -0.56524       -4.67486
H         -5.55676        0.16915       -3.17952
H         -4.39324       -0.33258       -4.41223
C         -6.96051        1.17832        2.74608
C         -6.49009        1.63433        1.35301
C         -6.84155        0.53295        0.33323
C         -7.22839        2.92391        0.94956
H         -8.02793        0.95831        2.74527
H         -6.42969        0.27790        3.05473
H         -6.77849        1.94699        3.49625
H         -7.91723        0.35967        0.30536
H         -6.52634        0.81535       -0.67108
H         -6.36306       -0.41088        0.59433
H         -8.30353        2.75537        0.89026
H         -7.05615        3.72208        1.67059
H         -6.88721        3.27340       -0.02475
C         -3.25744        5.56337        3.01492
C         -2.60743        4.20332        3.32865
C         -1.07772        4.36700        3.25702
C         -2.98270        3.75989        4.75439
H         -2.89771        6.33371        3.69683
H         -3.02197        5.87630        1.99780
H         -4.34170        5.51680        3.10844
H         -0.56962        3.43202        3.49286
H         -0.77179        4.68879        2.26286
H         -0.73352        5.11767        3.96822
H         -2.62012        4.47359        5.49389
H         -4.06252        3.67642        4.87150
H         -2.54589        2.78714        4.97995
C          2.05450       -5.48852        2.24453
C          2.43114       -4.29968        3.14433
C          1.17735       -3.77655        3.87463
C          3.43550       -4.78115        4.20999
H          1.35213       -5.18472        1.47036
H          2.93767       -5.89171        1.74928
H          1.59515       -6.28917        2.82394
H          1.41743       -2.89237        4.46470
H          0.38760       -3.50600        3.17629
H          0.77411       -4.53292        4.54762
H          2.97781       -5.52175        4.86576
H          4.30693       -5.24770        3.75151
H          3.77314       -3.95078        4.82996
C          6.81679       -0.49134        0.50410
C          6.42777       -1.60460        1.49679
C          7.20166       -2.88145        1.11917
C          6.82185       -1.15630        2.91551
H          6.32168        0.44746        0.75183
H          7.89154       -0.31142        0.52520
H          6.54738       -0.76729       -0.51521
H          7.00995       -3.68709        1.82676
H          6.90963       -3.22901        0.12834
H          8.27584       -2.69733        1.10895
H          6.26784       -0.26302        3.20343
H          6.60724       -1.93289        3.64878
H          7.88597       -0.92764        2.97170
C          3.93591        5.19606        0.62828
C          2.70501        4.78424       -0.19803
C          1.46677        4.80077        0.71764
C          2.47806        5.79867       -1.33506
H          4.83114        5.23264        0.00830
H          3.79560        6.18041        1.07452
H          4.11514        4.48230        1.43221
H          1.60559        4.14447        1.57647
H          1.28012        5.80490        1.09818
H          0.57805        4.47938        0.17505
H          2.25885        6.78870       -0.93555
H          3.35626        5.88711       -1.97308
H          1.63959        5.49446       -1.96033
C          5.17591        2.82208       -4.47055
C          5.35458        1.81551       -3.31746
C          5.40721        0.39555       -3.91422
C          6.68614        2.09582       -2.59748
H          4.22612        2.66789       -4.98005
H          5.19883        3.84972       -4.11060
H          5.97196        2.71332       -5.20702
H          5.59693       -0.34930       -3.14169
H          4.47152        0.14465       -4.41307
H          6.20712        0.31471       -4.65009
H          6.70840        3.10665       -2.19145
H          6.83126        1.40157       -1.77076
H          7.52944        1.98962       -3.27964
H         -2.26069       -1.49498       -4.86932
H          2.31392        1.55815       -4.71025
H         -0.82577       -0.74905       -5.56612
H         -1.76295        0.10719       -4.33840
H          0.88405        0.99870       -5.57516
H          1.66239       -0.04063       -4.37735
