72
-108.39559252
Cl        -1.88749        0.29995        2.82339
Cl         0.84397       -1.29571        2.71561
P          1.20593       -1.02490       -0.28125
P         -2.23296        0.19046       -0.37916
C         -3.46570       -1.24696       -0.23459
C         -4.19700       -1.13751        1.10016
C         -4.47688       -1.23281       -1.38819
C         -3.11050        1.87692       -0.17720
C         -4.46363        1.85875       -0.88114
C         -1.40946        0.30528       -2.06490
C         -1.30331       -1.00130       -2.83004
C          1.16820        0.29197       -1.52856
C         -0.04065        0.97200       -1.99260
C          0.40248        2.10478       -2.80913
C          1.85145        2.08642       -2.88378
C          2.32266        0.96201       -2.09811
C         -2.68829       -2.55865       -0.25041
H         -4.85174       -1.99742        1.25117
H         -3.49321       -1.10974        1.93161
H         -5.29406       -0.53776       -1.20562
H         -4.93139       -2.21699       -1.51317
C         -3.30100        2.22061        1.29538
H         -4.37263        1.48550       -1.90156
H         -4.87989        2.86607       -0.93546
H         -2.07787        0.96811       -2.62662
H         -0.68339       -1.71211       -2.29021
H         -0.82873       -0.84396       -3.80078
H         -2.26763       -1.47060       -3.01601
H         -0.25246        2.76574       -3.38022
H          2.47618        2.78179       -3.44879
Pd        -0.54783       -0.41149        1.17735
H          3.36224        0.68523       -1.91098
C         -2.24305        2.94991       -0.82849
H         -5.18589        1.24977       -0.34088
H         -2.34241        2.32365        1.80046
H         -3.83357        3.16622        1.40745
H         -3.87191        1.45682        1.81955
H         -2.60356        3.94927       -0.57833
H         -1.21661        2.86813       -0.48634
H         -2.24681        2.86999       -1.91513
H         -4.82055       -0.24685        1.14722
H         -4.01637       -0.95595       -2.33397
H         -1.93846       -2.59202        0.53983
H         -3.35743       -3.40697       -0.09724
H         -2.18157       -2.71787       -1.19898
C          2.88539       -1.09582        0.38894
C          3.33608       -2.11784        1.18574
C          4.66495       -1.83380        1.50220
C          4.97139       -0.64887        0.87904
O          3.88833       -0.18588        0.18864
H          2.75613       -2.96812        1.50843
H          5.32084       -2.42723        2.11802
H          5.92748       -0.14183        0.92004
C          0.89711       -2.65201       -0.98150
C          1.73281       -3.22484       -1.90734
C          1.19239       -4.47210       -2.22562
C          0.04768       -4.60534       -1.47790
O         -0.14678       -3.49143       -0.71099
H          2.63475       -2.78414       -2.30238
H          1.59618       -5.19070       -2.92000
H         -0.61527       -5.46167       -1.48421
Fe         1.21073        2.21752       -0.93865
C          2.86479        2.65206        0.21049
C          1.88202        1.93033        0.99247
C          0.65943        2.70334        1.00470
C          0.87228        3.89806        0.20855
C          2.23198        3.85557       -0.29793
H          3.89494        2.33470        0.03441
H          2.04623        0.99359        1.52887
H         -0.23192        2.44925        1.57933
H          0.15732        4.70991        0.05673
H          2.71296        4.62283       -0.90933
