171
-217.83600264
P         -1.47248        0.26013       -0.39347
P          1.68159       -0.71459        0.38585
C         -0.42248        1.07589       -1.61713
C          1.04476       -1.70563       -0.98853
C          0.45643        0.29485       -2.35747
C          1.30733        0.91225       -3.29377
C          1.21729        2.28163       -3.48247
C          0.33293        3.04198       -2.74651
C         -0.47972        2.43516       -1.80921
C          1.04606       -3.06266       -0.76542
C          0.51042       -3.92432       -1.70320
C         -0.04376       -3.41375       -2.85730
C         -0.07196       -2.04993       -3.09432
C          0.49318       -1.17420       -2.14856
Cl         0.60879       -1.21787        3.39115
Cl        -2.34011       -1.55543        2.29472
C         -0.72312       -1.54657       -4.33516
C          2.28371        0.10729       -4.07911
H          0.28263        4.10798       -2.89687
H         -1.14411        3.03149       -1.20922
H          1.45861       -3.44506        0.15665
H          0.51597       -4.98755       -1.52709
H          1.85199        2.75369       -4.21300
H         -0.47367       -4.07775       -3.58818
C         -4.23474       -2.56651       -2.60273
C         -3.58147       -3.03193       -1.46864
C         -2.75347       -2.14910       -0.78917
C         -2.57686       -0.86696       -1.24346
C         -3.21575       -0.42865       -2.37729
C         -4.06413       -1.27398       -3.08301
H         -4.90666       -3.22752       -3.11808
H         -2.25120       -2.45157        0.11120
H         -3.03249        0.57529       -2.71798
C         -4.14177        3.34028        1.65499
C         -3.45490        2.43183        2.45049
C         -2.63488        1.50748        1.81975
C         -2.51360        1.47719        0.45082
C         -3.23493        2.35960       -0.31636
C         -4.04590        3.32293        0.26895
H         -4.77547        4.06781        2.12412
H         -2.11660        0.78008        2.41545
H         -3.16995        2.29930       -1.38903
C          5.57594       -2.63776        1.68754
C          4.67979       -2.23652        2.67236
C          3.48080       -1.66873        2.26639
C          3.19395       -1.51191        0.93534
C          4.08828       -1.91580       -0.02521
C          5.30138       -2.48956        0.33244
H          6.50875       -3.07797        1.98263
H          2.75153       -1.36087        2.99323
H          3.83481       -1.78442       -1.06443
C          2.84119        3.64145       -0.12109
C          3.62807        2.64981       -0.69293
C          3.21595        1.33265       -0.54296
C          2.07118        1.02798        0.15143
C          1.31330        2.02240        0.72649
C          1.68085        3.35591        0.58778
H          3.14532        4.66733       -0.20873
H          3.81095        0.53189       -0.94716
H          0.43170        1.75393        1.27965
Pd        -0.40512       -0.80768        1.42870
C         -5.27823       -4.66842       -0.62055
C         -3.79707       -4.47435       -0.99086
C         -2.93545       -4.79620        0.24676
C         -3.40872       -5.44884       -2.11801
H         -5.46125       -5.68058       -0.26029
H         -5.57188       -3.97183        0.16451
H         -5.92613       -4.49701       -1.47942
H         -1.87528       -4.66555        0.03082
H         -3.19805       -4.15341        1.08666
H         -3.08344       -5.82827        0.56386
H         -4.02103       -5.29442       -3.00556
H         -2.36607       -5.31106       -2.40241
H         -3.53729       -6.48344       -1.80049
C         -4.73099       -1.82207       -5.45519
C         -4.84759       -0.79325       -4.31338
C         -4.31335        0.55741       -4.83117
C         -6.32547       -0.62410       -3.92065
H         -5.25433       -1.47340       -6.34541
H         -3.68844       -1.98723       -5.72429
H         -5.16337       -2.78198       -5.17697
H         -4.84025        0.86059       -5.73580
H         -4.45259        1.34729       -4.09392
H         -3.25216        0.49205       -5.07066
H         -6.74871       -1.56761       -3.57704
H         -6.42873        0.10167       -3.11404
H         -6.91824       -0.27680       -4.76670
C         -2.24245        2.52053        4.65514
C         -3.61690        2.36959        3.97711
C         -4.22887        1.00801        4.35734
C         -4.54070        3.48656        4.49885
H         -2.33545        2.45742        5.73912
H         -1.55271        1.73982        4.33670
H         -1.79776        3.48536        4.41458
H         -5.19384        0.87031        3.87018
H         -3.58218        0.18563        4.05360
H         -4.37929        0.93379        5.43408
H         -4.63512        3.43467        5.58346
H         -4.14506        4.47080        4.24851
H         -5.54173        3.39759        4.07730
C         -3.78039        5.08452       -1.49420
C         -4.79753        4.31411       -0.63043
C         -5.60682        5.33351        0.19391
C         -5.76767        3.53692       -1.53939
H         -3.06062        5.60865       -0.86552
H         -3.22594        4.41330       -2.14899
H         -4.28077        5.82158       -2.12195
H         -4.95639        5.91045        0.85117
H         -6.12277        6.03663       -0.45989
H         -6.36178        4.83596        0.80235
H         -6.48190        2.96900       -0.94353
H         -6.32753        4.21476       -2.18347
H         -5.23404        2.83457       -2.17831
C          6.33731       -3.04205        4.43095
C          4.96118       -2.39902        4.17299
C          3.87648       -3.29716        4.79683
C          4.93508       -1.01373        4.84550
H          6.39556       -4.03575        3.98720
H          7.13968       -2.43044        4.01870
H          6.52001       -3.14778        5.50027
H          4.05792       -3.44663        5.86095
H          2.88613       -2.85693        4.68674
H          3.86268       -4.27473        4.31546
H          3.96036       -0.53950        4.73690
H          5.14981       -1.09298        5.91100
H          5.67924       -0.35483        4.39852
C          6.67351       -1.69479       -1.60928
C          6.27659       -2.92433       -0.77073
C          5.58815       -3.96582       -1.67302
C          7.55660       -3.55273       -0.18741
H          7.14900       -0.93981       -0.98366
H          7.37422       -1.96955       -2.39747
H          5.80359       -1.23954       -2.08128
H          4.70389       -3.55052       -2.15523
H          6.26311       -4.31080       -2.45609
H          5.27509       -4.83220       -1.09072
H          8.23422       -3.85936       -0.98418
H          8.09048       -2.84210        0.44328
H          7.32423       -4.43681        0.40605
C          6.10671        2.35834       -0.55523
C          4.95993        2.94861       -1.39604
C          5.19213        4.46311       -1.55760
C          4.96572        2.30806       -2.79566
H          5.99376        1.28103       -0.43898
H          7.07273        2.54641       -1.02335
H          6.12084        2.80040        0.44079
H          4.38491        4.92319       -2.12748
H          5.25802        4.95738       -0.58861
H          6.12455        4.65669       -2.08783
H          4.15024        2.70270       -3.40013
H          5.90052        2.51645       -3.31579
H          4.85351        1.22638       -2.73888
C          0.51722        5.55094        0.16878
C          0.89080        4.50358        1.23502
C          1.76138        5.15872        2.32234
C         -0.40793        4.00062        1.88697
H          1.40256        5.98249       -0.29595
H         -0.08962        5.10325       -0.61678
H         -0.05645        6.36604        0.60969
H          2.04276        4.42839        3.08081
H          2.67672        5.57122        1.89930
H          1.22550        5.96926        2.81598
H         -0.96207        4.82382        2.33765
H         -1.05623        3.53398        1.14784
H         -0.19538        3.27437        2.67035
H         -0.13750       -1.80713       -5.21790
H          2.74233       -0.66409       -3.45818
H         -0.84372       -0.46285       -4.31565
H         -1.71467       -1.98538       -4.45057
H          3.08468        0.73076       -4.47817
H          1.79669       -0.38381       -4.92207
