171
-217.83629543
P         -1.49224        0.22026       -0.41544
P          1.71548       -0.71506        0.39554
C         -0.45370        1.04673       -1.63534
C          1.09678       -1.70962       -0.98120
C          0.46325        0.28596       -2.35065
C          1.29859        0.92214       -3.28882
C          1.14628        2.28073       -3.51163
C          0.21848        3.01717       -2.80534
C         -0.57467        2.39649       -1.86036
C          1.12181       -3.06711       -0.76192
C          0.59798       -3.93499       -1.70039
C          0.03183       -3.43035       -2.85115
C         -0.01735       -2.06655       -3.08509
C          0.53319       -1.18285       -2.13811
Cl         0.57940       -1.08218        3.41445
Cl        -2.29435       -1.56864        2.31487
C         -0.66230       -1.57116       -4.33212
C          2.31948        0.15175       -4.05106
H          0.11572        4.07413       -2.98879
H         -1.28494        2.97101       -1.29144
H          1.54301       -3.44531        0.15803
H          0.62310       -4.99850       -1.52761
H          1.76203        2.76164       -4.25237
H         -0.39006       -4.09984       -3.58182
C         -4.30904       -2.56685       -2.60873
C         -3.72250       -3.01020       -1.42904
C         -2.87166       -2.14124       -0.76173
C         -2.60451       -0.89569       -1.26832
C         -3.18094       -0.47725       -2.44245
C         -4.05461       -1.30655       -3.13636
H         -4.99619       -3.20879       -3.12664
H         -2.43445       -2.42777        0.17783
H         -2.93233        0.49935       -2.82014
C         -4.16337        3.27035        1.66420
C         -3.35815        2.46195        2.45557
C         -2.53498        1.54310        1.81925
C         -2.52531        1.42831        0.44918
C         -3.35084        2.22052       -0.31072
C         -4.17456        3.17016        0.27859
H         -4.80694        3.98141        2.14695
H         -1.91125        0.89577        2.40514
H         -3.35739        2.09840       -1.38015
C          5.57916       -2.61837        1.79689
C          4.64857       -2.24372        2.75807
C          3.45839       -1.67868        2.32084
C          3.21731       -1.50637        0.98196
C          4.14432       -1.89154        0.04414
C          5.35247       -2.45485        0.43611
H          6.50911       -3.05068        2.11783
H          2.69749       -1.38080        3.01800
H          3.91237       -1.75252       -0.99828
C          2.84869        3.62360       -0.26329
C          3.63273        2.61882       -0.81339
C          3.23095        1.30466       -0.61369
C          2.10332        1.01947        0.11634
C          1.34972        2.02773        0.67234
C          1.70434        3.35776        0.47828
H          3.14981        4.64559       -0.40173
H          3.80597        0.48928       -1.01527
H          0.48165        1.77278        1.25280
Pd        -0.38655       -0.79447        1.40169
C         -4.94019       -5.22725       -1.71629
C         -3.98949       -4.39846       -0.83190
C         -4.62856       -4.23608        0.55991
C         -2.65552       -5.15743       -0.70340
H         -5.10912       -6.21332       -1.28373
H         -5.91018       -4.74010       -1.81388
H         -4.52256       -5.37095       -2.71269
H         -3.96748       -3.69899        1.23903
H         -5.56182       -3.67759        0.49193
H         -4.84641       -5.20654        1.00521
H         -2.17993       -5.26507       -1.67789
H         -1.96165       -4.63092       -0.04903
H         -2.81101       -6.15417       -0.29125
C         -4.61496       -1.88451       -5.52674
C         -4.78125       -0.83968       -4.40650
C         -4.22497        0.50501       -4.91621
C         -6.27569       -0.66318       -4.08373
H         -5.11089       -1.55561       -6.43986
H         -3.56232       -2.04281       -5.75747
H         -5.04583       -2.84462       -5.24659
H         -4.72362        0.80525       -5.83768
H         -4.38165        1.29939       -4.18698
H         -3.15780        0.43346       -5.12509
H         -6.71906       -1.60224       -3.75381
H         -6.41381        0.06886       -3.28814
H         -6.82726       -0.32002       -4.95883
C         -2.41849        1.61911        4.66832
C         -3.43622        2.55673        3.98688
C         -4.85069        2.15109        4.43890
C         -3.14244        3.99953        4.43736
H         -2.47392        1.71089        5.75278
H         -2.61388        0.57666        4.41774
H         -1.39893        1.86024        4.36862
H         -5.08010        1.13587        4.11561
H         -4.94012        2.18867        5.52440
H         -5.60492        2.81478        4.01751
H         -2.14251        4.30414        4.13164
H         -3.85427        4.70404        4.00928
H         -3.20088        4.08698        5.52215
C         -5.88000        5.05877        0.21020
C         -5.05210        4.05617       -0.61600
C         -6.01849        3.16590       -1.41958
C         -4.14969        4.84686       -1.58250
H         -6.55188        4.54229        0.89545
H         -5.23324        5.71759        0.78947
H         -6.49071        5.68460       -0.44048
H         -6.64916        2.58085       -0.75052
H         -6.66706        3.76812       -2.05554
H         -5.47697        2.47063       -2.05977
H         -3.58657        4.18014       -2.23463
H         -4.74078        5.50903       -2.21484
H         -3.43456        5.45610       -1.02981
C          5.18923       -3.95721        4.50761
C          4.95482       -2.45787        4.24718
C          3.79078       -1.98449        5.14022
C          6.21601       -1.66020        4.62621
H          4.31241       -4.53829        4.22252
H          6.03837       -4.33088        3.93664
H          5.38932       -4.14333        5.56266
H          4.02037       -2.14544        6.19337
H          3.59868       -0.92055        5.00357
H          2.87552       -2.53144        4.91495
H          7.08223       -1.99412        4.05621
H          6.07349       -0.59824        4.42687
H          6.44820       -1.77707        5.68462
C          7.70900       -2.06591       -0.32381
C          6.42425       -2.87517       -0.57925
C          5.96588       -2.61763       -2.02867
C          6.71495       -4.37872       -0.42023
H          8.10277       -2.25305        0.67452
H          8.48482       -2.32790       -1.04304
H          7.51434       -0.99717       -0.41145
H          5.76756       -1.55918       -2.19595
H          6.73477       -2.92412       -2.73773
H          5.06115       -3.17969       -2.25987
H          7.45878       -4.71091       -1.14425
H          7.09456       -4.60619        0.57517
H          5.80849       -4.96381       -0.57459
C          4.56155        3.82669       -2.80716
C          4.91672        2.97417       -1.57648
C          5.66271        1.71145       -2.05183
C          5.85451        3.76827       -0.64804
H          4.04790        4.74328       -2.51941
H          5.45810        4.10491       -3.36088
H          3.90885        3.27425       -3.48132
H          5.94587        1.08330       -1.20740
H          5.04619        1.12181       -2.72931
H          6.57500        1.97820       -2.58514
H          6.09366        3.18854        0.24335
H          6.78906        4.01174       -1.15319
H          5.39695        4.70311       -0.32668
C          0.54612        5.54451        0.00462
C          0.91752        4.52303        1.09671
C          1.79084        5.20271        2.16619
C         -0.38484        4.04269        1.75925
H          1.43154        5.96109       -0.47329
H         -0.06490        5.07859       -0.76696
H         -0.02329        6.37300        0.42563
H          2.06835        4.49172        2.94422
H          2.70844        5.59817        1.73178
H          1.25915        6.02917        2.63745
H         -0.94526        4.88526        2.16333
H         -1.02424        3.54057        1.03551
H         -0.18118        3.35516        2.57950
H         -0.04768       -1.79512       -5.20517
H          2.69232       -0.69153       -3.46745
H         -0.82462       -0.49328       -4.30060
H         -1.63334       -2.04625       -4.47459
H          3.17470        0.77836       -4.30804
H          1.90063       -0.23849       -4.97942
