72
-98.09173052
Fe         0.02910        2.80415        0.04388
P          1.91165       -0.08271       -0.05147
P         -1.83154       -0.05896       -0.08107
C          1.45026        1.52633        0.69835
C          0.44352        1.74329        1.72367
C          0.39788        3.16582        2.01513
C          1.40211        3.82979        1.20359
C          2.03781        2.81717        0.37763
C         -1.42164        1.63539       -0.66349
C         -1.97837        2.88418       -0.16356
C         -1.36423        3.98089       -0.89322
C         -0.43646        3.41327       -1.85417
C         -0.48022        1.96742       -1.71819
C          3.46348       -0.66802        0.76576
C          4.55087       -0.01258       -0.10378
C          2.58662        0.19152       -1.75811
C          4.11873        0.08291       -1.59299
C         -3.00359       -0.78903       -1.31150
C         -4.31837       -0.09074       -0.93231
C         -3.04925        0.10459        1.32065
C         -4.42294        0.14278        0.60343
H         -0.18269        0.97461        2.17591
H         -0.25322        3.64686        2.74902
H          1.63047        4.89788        1.20493
H          2.84513        2.98537       -0.33849
H         -2.73878        2.98062        0.61416
H          0.05703        1.24991       -2.33815
Cl         1.57205       -3.02639        0.68433
Cl        -1.61631       -3.01027        0.19210
Pd         0.03330       -1.46770        0.15033
H          3.49823       -1.75801        0.65946
C          3.52914       -0.27642        2.23749
H          2.30997        1.22501       -2.00341
C          1.98657       -0.77569       -2.78070
H          5.50197       -0.55802       -0.00274
H          4.74857        0.99544        0.28775
H          4.61525        0.93334       -2.08372
H          4.48099       -0.79995       -2.13294
H         -1.57919        5.04334       -0.75722
H          0.16705        3.97226       -2.57317
H          4.53405       -0.49780        2.62336
H          0.89610       -0.65087       -2.78930
H         -3.07596       -1.86358       -1.11028
C         -2.53410       -0.55308       -2.74095
H         -2.82965        1.06187        1.80784
C         -2.96948       -1.02239        2.34983
H         -5.18187       -0.66381       -1.30422
H         -4.35954        0.87490       -1.45692
H         -4.93910        1.09132        0.81293
H         -5.06596       -0.63319        1.04129
H         -2.46683        0.52812       -2.91920
H         -3.03992       -1.98250        1.82369
C          2.47874       -0.97010        3.08910
H          2.54141       -0.67916        4.14005
H          1.47327       -0.73163        2.74240
H          2.58394       -2.05533        3.03875
C          2.31532       -2.24341       -2.54307
H          2.04411       -2.55291       -1.53481
H          1.78139       -2.89723       -3.23664
H          3.37874       -2.45224       -2.66450
C         -3.43676       -1.20295       -3.77846
H         -3.07699       -1.03671       -4.79642
H         -3.49975       -2.28173       -3.62396
H         -4.45329       -0.80963       -3.72202
C         -1.72752       -0.98867        3.22500
H         -0.82082       -1.11450        2.63553
H         -1.64394       -0.04015        3.75874
H         -1.73411       -1.78514        3.97265
H          3.42273        0.81344        2.31802
H          2.31850       -0.48356       -3.78677
H         -1.50686       -0.92847       -2.84557
H         -3.86343       -0.98024        2.98773
