115
-277.92967609
P         -1.78897       -0.21383        0.00310
P          1.82462       -0.93438        0.35686
C         -1.56343        1.53052       -0.40818
C         -2.65631        2.36160       -0.28966
H         -3.63383        1.94174       -0.10766
C         -2.47437        3.72895       -0.27821
H         -3.29832        4.38560       -0.05005
C         -1.20402        4.26636       -0.41578
C         -0.13961        3.42374       -0.69716
H          0.84165        3.86063       -0.82390
C         -0.32039        2.05502       -0.69020
H          0.52181        1.40026       -0.83289
C         -3.31486       -0.78570       -0.76226
C         -3.99827       -1.83193       -0.18673
H         -3.62714       -2.27711        0.72187
C         -5.15398       -2.30409       -0.77467
H         -5.71206       -3.11627       -0.33664
C         -5.62164       -1.73725       -1.94354
C         -4.93028       -0.68340       -2.51139
H         -5.30774       -0.24365       -3.42095
C         -3.77636       -0.20896       -1.92324
H         -3.22419        0.59756       -2.37875
C         -1.79162       -0.64347        1.77796
C         -1.27774       -1.91022        1.99365
H         -0.89912       -2.47601        1.15754
C         -1.07598       -2.40339        3.28408
C         -1.64668       -1.69537        4.33762
H         -1.54604       -2.07121        5.34216
C         -2.18256       -0.43993        4.12918
H         -2.49941        0.14621        4.97508
C         -2.15109        0.15822        2.86979
C          1.35433       -0.45098        2.05799
C          0.78287        0.80260        2.12530
H          0.58464        1.34156        1.21822
C          0.31058        1.32589        3.32628
C          0.63720        0.65167        4.49786
H          0.32532        1.05711        5.44581
C          1.20102       -0.60741        4.44300
H          1.32432       -1.17336        5.35094
C          1.44498       -1.23292        3.22045
C         -2.16362        1.66912        2.81757
H         -3.01080        2.04977        3.39838
H         -2.36696        1.97655        1.79570
C         -0.82110        2.31899        3.30782
H         -0.54569        3.17405        2.68083
H         -0.94307        2.73402        4.31400
C          0.05187       -3.37104        3.54981
H         -0.10435       -4.30186        2.99367
H          0.02612       -3.66134        4.60554
C          1.44223       -2.74612        3.20259
H          2.22058       -3.12249        3.87530
H          1.73175       -3.08631        2.21085
C          2.90558       -2.37077        0.51263
C          2.49592       -3.61115        0.06622
C          3.98014       -2.26065        1.37180
C          3.07876       -4.75171        0.57910
C          4.56024       -3.40396        1.88752
C          4.06674       -4.65421        1.54459
C          2.73879        0.39314       -0.44449
C          2.86166        0.39801       -1.81416
C          3.22034        1.44681        0.29825
C          3.41444        1.48615       -2.45386
H          2.49543       -0.43817       -2.38623
C          3.77282        2.53691       -0.34006
H          3.13059        1.43576        1.37221
C          3.85275        2.57139       -1.72065
H          3.46453        1.53501       -3.53039
H          4.09382        3.39992        0.22150
Pd        -0.01675       -1.33461       -1.06604
Cl        -1.61589       -2.09827       -2.45293
Cl         1.55524       -2.30557       -2.34974
H          5.31499       -3.33421        2.65375
H          4.28405       -1.28758        1.72637
H          2.69405       -5.72929        0.33301
H          1.66640       -3.69430       -0.61527
C         -2.10153        6.62641       -0.14420
C         -0.90782        5.65590        0.09426
C         -0.56747        5.48575        1.60828
F         -1.72003        7.87491        0.16812
F         -2.43268        6.55512       -1.44213
F         -3.14628        6.25544        0.60873
F          0.16267        6.16452       -0.52016
F         -1.58697        4.86741        2.21912
F          0.51866        4.70483        1.69333
F         -0.33216        6.68355        2.16069
C         -8.05367       -1.26023       -2.14801
C         -6.91016       -2.23658       -2.54574
C         -6.76418       -2.38709       -4.08902
F         -9.20393       -1.66685       -2.70557
F         -8.15209       -1.28309       -0.81025
F         -7.73896       -0.02239       -2.55728
F         -7.21102       -3.43985       -2.04930
F         -5.65980       -3.11263       -4.32223
F         -7.84378       -3.01931       -4.57428
F         -6.63773       -1.17580       -4.64880
C          2.92479        4.74737       -2.38507
C          4.19436        3.84856       -2.44121
C          5.44702        4.52776       -1.81540
F          1.92378        4.05827       -2.95241
F          2.61834        4.98739       -1.10276
F          3.14914        5.89003       -3.05042
F          4.46412        3.59755       -3.72513
F          6.43919        3.62478       -1.81580
F          5.78890        5.59048       -2.56049
F          5.17783        4.90371       -0.55734
C          5.75951       -5.90507        2.96078
C          4.29404       -5.84674        2.44035
C          3.24278       -5.73057        3.59056
F          6.01103       -4.83983        3.73391
F          5.93230       -7.03978        3.65613
F          6.56998       -5.89005        1.89205
F          4.04906       -6.97713        1.77300
F          3.46180       -4.60179        4.27560
F          2.02894       -5.66383        3.02466
F          3.32935       -6.80122        4.39106
