111
-148.55488607
P         -1.65651        2.77259        0.26839
P         -0.49990       -0.15161        0.52307
C         -1.35070        2.06210        1.91247
C         -0.92489        0.75521        2.02278
C         -0.46706        4.14831       -0.07076
C          0.42429        3.80642       -1.24583
C         -1.51242        2.82822        3.04941
H         -1.80408        3.86146        2.95760
C         -1.27415        2.27337        4.29500
H         -1.40474        2.87066        5.18261
C         -0.86282        0.95861        4.40213
H         -0.67122        0.52899        5.37161
C         -0.67629        0.20005        3.26067
H         -0.31789       -0.81520        3.32349
Pd        -1.66547        0.94465       -1.15833
Cl        -2.99068        2.10958       -2.53260
Cl        -1.32727       -0.93174       -2.35393
C         -1.38187        5.36727       -0.30817
C         -3.25627        3.70333        0.18027
H          1.02118        2.91391       -1.04848
H         -0.17345        3.60762       -2.13774
H          1.10903        4.62506       -1.47929
H         -1.47645        5.52878       -1.39070
H         -0.91104        6.28129        0.08395
H         -3.65134        3.52621       -0.82817
C         -2.79736        5.16701        0.30479
C         -4.26047        3.25019        1.21867
H          0.12054        4.27617        0.84767
H         -2.78506        5.44825        1.36663
H         -3.52977        5.83876       -0.16868
H         -3.88874        3.42038        2.22921
H         -5.20386        3.79242        1.12275
H         -4.47230        2.18281        1.12340
C         -0.43509       -4.68486        0.92281
C         -1.63852       -4.03685        0.53571
C         -1.63175       -2.65638        0.41746
C         -0.51638       -1.92655        0.73321
C          0.60733       -2.53695        1.22633
C          0.66735       -3.91262        1.37624
O         -0.30519       -6.09012        0.77886
C         -2.95137       -4.77745        0.23021
H         -2.49784       -2.13394        0.04768
H          1.45507       -1.92202        1.47964
C          1.92603       -4.50743        2.02991
C          3.54733        1.40653       -0.87286
C          2.81609        0.50605       -1.69226
C          1.59179        0.05271       -1.23360
C          1.12876        0.39373        0.00855
C          1.88598        1.16287        0.85211
C          3.12064        1.65105        0.45973
O          4.64458        2.12573       -1.41251
C          3.29048        0.00972       -3.06734
H          0.95613       -0.54370       -1.86499
H          1.49292        1.39934        1.82569
C          3.94530        2.42672        1.49984
C         -3.19886       -4.76838       -1.28761
C         -2.93996       -6.22846        0.74194
C         -4.12285       -4.06058        0.93718
C          3.10387       -4.41786        1.04503
C          2.27024       -3.70270        3.30311
C          1.72657       -5.96997        2.46380
C          0.19322       -6.46755       -0.49397
H         -4.13925       -5.26147       -1.53223
H         -3.24495       -3.74859       -1.66847
H         -2.40161       -5.28377       -1.81946
H         -3.91138       -6.70209        0.60204
H         -2.20333       -6.82792        0.21248
H         -2.69560       -6.25976        1.80315
H         -3.93503       -3.98123        2.00757
H         -4.27853       -3.05648        0.54649
H         -5.05399       -4.60959        0.79915
H          2.90399       -4.98702        0.13925
H          3.29017       -3.38470        0.75305
H          4.01665       -4.80965        1.49307
H          1.42187       -3.68383        3.98668
H          3.11483       -4.14854        3.82789
H          2.53948       -2.67340        3.07195
H          2.59392       -6.33940        3.01043
H          0.85300       -6.06385        3.10795
H          1.57847       -6.61993        1.60480
H          1.17500       -6.02638       -0.65736
H          0.27345       -7.55376       -0.54121
H         -0.47994       -6.12179       -1.27660
C          4.25756        3.35474       -2.00531
C          4.78446        0.28633       -3.30722
C          3.09340       -1.52027       -3.15354
C          2.45689        0.68749       -4.16794
C          3.96013        1.64032        2.82960
C          5.41096        2.60920        1.06937
C          3.30167        3.80320        1.73685
H          5.12058       -0.15721       -4.24415
H          4.98429        1.35395       -3.35864
H          5.38645       -0.12766       -2.49910
H          3.61023       -2.02111       -2.33534
H          2.04140       -1.79640       -3.10578
H          3.48895       -1.91075       -4.09078
H          2.75456        0.33466       -5.15492
H          1.39610        0.47321       -4.04114
H          2.58116        1.76844       -4.14654
H          4.33972        0.63071        2.67455
H          4.59882        2.13077        3.56376
H          2.96561        1.56264        3.26583
H          5.48825        3.24265        0.18907
H          5.99817        3.07336        1.86140
H          5.86325        1.64761        0.82929
H          3.86248        4.37305        2.47719
H          2.27984        3.69757        2.09987
H          3.26893        4.38622        0.81840
H          5.13368        3.83508       -2.44137
H          3.51824        3.17809       -2.78482
H          3.82416        4.01296       -1.25424
