59
-75.79910197
Cl         1.49540        0.75942        2.38887
P          1.51666        0.19507       -0.80237
P         -1.61908       -0.23203       -0.76345
C          0.53927        0.36430       -2.35797
H          0.20965        1.40220       -2.44594
H          1.19290        0.15401       -3.21003
C         -0.63711       -0.56802       -2.29396
H         -0.29747       -1.60634       -2.24883
H         -1.29432       -0.47426       -3.16417
C          2.54758       -1.34033       -0.82057
H          2.55679       -1.69767       -1.85741
C          2.84130        1.47265       -0.59821
H          2.75995        1.83560        0.43362
C         -2.77124       -1.61959       -0.34333
H         -2.73301       -1.72902        0.74738
C         -2.84495        1.13563       -1.01656
H         -2.80978        1.38475       -2.08395
C          3.94098       -0.83183       -0.40936
H          4.05503       -0.95453        0.67656
H          4.72687       -1.45580       -0.86161
C          4.13847        0.66375       -0.78110
H          4.45809        0.73986       -1.82953
H          4.95390        1.10876       -0.19075
C         -4.14033       -1.06828       -0.77460
H         -4.32872       -1.36169       -1.81666
H         -4.94476       -1.53455       -0.18528
C         -4.19145        0.47878       -0.65272
H         -4.44604        0.75050        0.38103
H         -5.00027        0.89462       -1.27248
C          1.97011       -2.40639        0.10268
H          0.91411       -2.56973       -0.15197
H          1.96081       -2.01735        1.12972
C          2.67995        2.63135       -1.57499
H          2.72793        2.24008       -2.59976
H          1.67104        3.05285       -1.47336
C         -2.37707       -2.93143       -1.01133
H         -2.40333       -2.79730       -2.10064
H         -1.32956       -3.15759       -0.77062
C         -2.53297        2.36907       -0.17397
H         -3.39181        3.05355       -0.21556
H         -2.45777        2.06570        0.87856
C          2.73155       -3.72195        0.04445
H          3.77436       -3.59005        0.33841
H          2.73168       -4.13223       -0.96718
H          2.29764       -4.47584        0.70529
C          3.72032        3.72384       -1.37725
H          4.73193        3.34003       -1.52069
H          3.67253        4.13383       -0.36664
H          3.58252        4.55270       -2.07539
C         -3.26666       -4.09610       -0.60280
H         -3.23871       -4.25228        0.47726
H         -2.96216       -5.03127       -1.07833
H         -4.30810       -3.91485       -0.87451
C         -1.27080        3.10013       -0.60201
H         -0.39114        2.46511       -0.49923
H         -1.32754        3.40951       -1.64730
H         -1.09319        3.99592       -0.00256
Cl        -1.74965       -0.02637        2.35278
Pd        -0.04701        0.12349        0.89735
