64
-97.20877702
Cl        -1.58720       -1.38584       -2.52382
Cl         1.44801       -2.36081       -2.54472
P          1.95295       -0.62968        0.24770
C          2.30246       -2.23731        1.09245
C          3.65651       -0.19138       -0.32324
P         -1.25018       -0.06924        0.38852
C          1.31150        0.65275        1.37884
C         -0.11564        0.87981        1.47111
C         -0.32860        2.00815        2.36651
C          0.97064        2.46874        2.82651
C          1.98766        1.62903        2.21729
H         -1.29259        2.45097        2.62202
H          1.15102        3.29863        3.51333
Pd         0.19029       -1.10305       -1.18106
H          3.06776        1.71198        2.35423
C         -4.71976        2.65917       -0.73220
C         -4.42327        2.41200        0.59364
C         -3.38330        1.55968        0.92013
C         -2.64404        0.96592       -0.07801
C         -2.95392        1.19249       -1.39949
C         -3.98979        2.04547       -1.73057
H         -5.52870        3.32398       -0.98803
H         -4.99994        2.88161        1.37356
H         -3.14796        1.34848        1.95112
H         -2.39927        0.68077       -2.16703
H         -4.22986        2.22520       -2.76568
C         -2.78220       -3.79524        2.48759
C         -2.27391       -2.74660        3.22977
C         -1.81240       -1.60991        2.59028
C         -1.86248       -1.53374        1.21775
C         -2.36847       -2.57413        0.47460
C         -2.83106       -3.71142        1.10963
H         -3.14163       -4.68128        2.98507
H         -2.23621       -2.81276        4.30473
H         -1.41233       -0.78169        3.15329
H         -2.38436       -2.49050       -0.60018
H         -3.22546       -4.52978        0.52998
C          3.78514       -0.35492       -1.82261
H          3.83780        0.84992       -0.02542
C          4.54550       -1.16504        0.47572
H          4.86513       -0.69386        1.41686
C          3.79397       -2.48777        0.79068
H          5.46935       -1.36710       -0.08588
C          1.98608       -2.13064        2.56847
H          1.66751       -2.99614        0.61486
H          4.25966       -3.00521        1.64178
H          3.89245       -3.17415       -0.06295
H          2.58679       -1.34624        3.03332
H          0.93584       -1.87945        2.73216
H          2.19548       -3.06595        3.09300
H          3.03817        0.23404       -2.35868
H          4.77414       -0.05506       -2.17680
H          3.63707       -1.39833       -2.10580
Fe         0.84489        2.51560        0.76875
C          0.41121        4.37126        0.02294
C         -0.45698        3.35697       -0.54800
C          0.36710        2.37830       -1.23248
C          1.75346        2.76731       -1.06207
C          1.78138        3.98555       -0.27034
H          0.09286        5.25251        0.58469
H         -1.54810        3.35400       -0.50711
H          0.00185        1.53301       -1.81818
H          2.62146        2.27421       -1.50212
H          2.67699        4.54561        0.00930
