72
-98.09295514
Fe         0.04135        2.80472       -0.05148
P          1.98058       -0.07822        0.01017
P         -1.73917       -0.09822       -0.16684
C          1.47003        1.56631        0.64304
C          0.46152        1.81057        1.66097
C          0.41214        3.24046        1.91469
C          1.40399        3.88315        1.07111
C          2.05151        2.84886        0.28134
C         -1.35370        1.58147       -0.79974
C         -1.95139        2.83156       -0.35596
C         -1.32879        3.91825       -1.09360
C         -0.35901        3.34274       -2.00708
C         -0.37743        1.90170       -1.82688
C          3.38366       -0.65845        1.06742
C          4.57365        0.05312        0.40323
C          2.91647        0.07711       -1.58677
C          4.39892        0.14003       -1.13940
C         -2.97284       -0.91214       -1.28595
C         -4.18081       -1.17116       -0.36373
C         -2.75235        0.03507        1.37799
C         -4.18239       -0.22113        0.86518
H         -0.13534        1.04901        2.16436
H         -0.23638        3.74028        2.63801
H          1.62815        4.95168        1.03994
H          2.86180        2.99753       -0.43565
H         -2.74035        2.93261        0.39249
H          0.23350        1.18252       -2.37040
Cl         1.68926       -3.08433        0.38021
Cl        -1.50696       -3.05183        0.13998
Pd         0.13099       -1.49471        0.01853
H          3.46958       -1.74266        0.93416
C          3.19294       -0.32125        2.54146
H          2.60309        1.01815       -2.05388
C          2.64209       -1.10380       -2.52146
H          5.51801       -0.44754        0.66846
H          4.65060        1.06600        0.82454
H          4.87994        1.04841       -1.53143
H          4.94033       -0.69392       -1.60686
H         -1.56725        4.97988       -0.99548
H          0.26722        3.89380       -2.71227
H          4.13433       -0.50734        3.07696
H          3.44923       -1.16145       -3.26540
H         -2.52703       -1.85261       -1.63223
C         -3.27654       -0.02260       -2.48747
H         -2.63791        1.05915        1.75336
C         -2.29000       -0.95748        2.44043
H         -4.16568       -2.21433       -0.01559
H         -5.11554       -1.06404       -0.93117
H         -4.65554        0.73253        0.58771
H         -4.80266       -0.63651        1.67213
H         -3.75348        0.90029       -2.13122
H         -1.19717       -0.91053        2.52837
C          2.06196       -1.10375        3.18898
H          1.11311       -0.90932        2.68946
H          2.23956       -2.17890        3.12581
H          1.93585       -0.84999        4.24386
C          1.30361       -1.04672       -3.24298
H          1.23618       -0.16351       -3.88082
H          1.14894       -1.91924       -3.88187
H          0.46716       -1.01001       -2.54559
C         -4.14285       -0.70067       -3.53962
H         -3.67051       -1.61313       -3.90841
H         -5.11723       -0.98355       -3.13871
H         -4.32153       -0.05276       -4.40081
C         -2.92599       -0.72382        3.80294
H         -2.70520        0.27937        4.17262
H         -4.01202       -0.81935        3.76152
H         -2.56476       -1.43510        4.54923
H          3.01448        0.75767        2.63798
H          2.72268       -2.03134       -1.93900
H         -2.32824        0.29953       -2.94004
H         -2.50292       -1.97510        2.08846
