87
-129.18743324
P         -1.71405       -0.39977       -0.15723
P          1.51639        0.44736       -0.04100
C         -1.47883        0.95198       -1.32949
C          1.35447       -0.56047       -1.52214
C         -0.49189        0.92304       -2.31135
C         -0.31722        2.05448       -3.13196
C         -1.13702        3.15540       -2.95330
C         -2.11162        3.16439       -1.97953
C         -2.27531        2.05994       -1.16725
C          2.18554       -1.64428       -1.66817
C          2.07026       -2.46435       -2.77309
C          1.11240       -2.19363       -3.72690
C          0.26096       -1.10909       -3.59777
C          0.38716       -0.26541       -2.47647
Cl         1.04990        0.91797        3.17233
Cl        -1.43335       -1.12043        2.99819
H         -2.73839        4.03107       -1.84736
H         -3.03018        2.06377       -0.39859
H          2.92723       -1.85183       -0.91475
H          2.72041       -3.31661       -2.88417
H         -0.99959        4.01653       -3.58512
H          1.01200       -2.83578       -4.58545
C         -1.15135       -4.53949       -1.94315
C         -0.44801       -4.18838       -0.79892
C         -0.65842       -2.92829       -0.25366
C         -1.51696       -2.03910       -0.85797
C         -2.20937       -2.39345       -1.99184
C         -2.02870       -3.65196       -2.53520
H         -1.00538       -5.51772       -2.36851
C          0.49146       -5.14103       -0.14768
H         -0.14767       -2.64592        0.65076
H         -2.87461       -1.68039       -2.45279
H         -2.56620       -3.93622       -3.42494
C         -5.70573        0.01284        1.99814
C         -5.53066       -0.98418        1.05900
C         -4.32012       -1.10946        0.40385
C         -3.29472       -0.23924        0.69174
C         -3.46712        0.75407        1.62841
C         -4.67919        0.89943        2.29218
H         -6.64437        0.10627        2.51731
H         -6.33466       -1.66773        0.84036
H         -4.16738       -1.88900       -0.32420
H         -2.64908        1.41521        1.86287
C         -4.84682        1.95110        3.33158
C          5.07304       -0.99721        2.41154
C          5.11977        0.23862        1.79691
C          4.04154        0.68038        1.05357
C          2.92861       -0.11717        0.92697
C          2.87936       -1.34811        1.53987
C          3.94952       -1.80446        2.29901
H          5.91264       -1.34434        2.98932
H          5.99474        0.85962        1.89793
H          4.06112        1.64533        0.57404
H          2.00131       -1.96292        1.43434
C          3.89506       -3.14375        2.94558
C          1.89012        4.86288       -1.02834
C          1.04735        4.45910       -0.01154
C          0.93906        3.11744        0.30093
C          1.66750        2.19382       -0.41120
C          2.51602        2.59161       -1.41782
C          2.63564        3.93778       -1.74586
H          1.97950        5.90785       -1.27206
H          0.47683        5.18809        0.54018
H          0.29969        2.78692        1.10337
H          3.08134        1.85032       -1.95856
C          3.55853        4.38309       -2.82519
Pd        -0.14695       -0.01915        1.52216
C          0.72735        2.09394       -4.19314
C         -0.77101       -0.86577       -4.64371
H          0.28733        1.93293       -5.17796
H          1.23092        3.06132       -4.20670
H          1.48882        1.32976       -4.03412
H         -0.31594       -0.48020       -5.55683
H         -1.29445       -1.78934       -4.89489
H         -1.51861       -0.14598       -4.30875
H          0.00034       -5.67260        0.66848
H          0.86087       -5.88081       -0.85924
H          1.35590       -4.61709        0.26343
H         -4.29105        2.85274        3.06993
H         -5.89521        2.22944        3.44761
H         -4.48166        1.59970        4.29758
H          4.56973       -3.19747        3.80110
H          2.88820       -3.36318        3.30408
H          4.17993       -3.92635        2.24095
H          3.07743        5.11874       -3.47150
H          4.45534        4.83950       -2.40393
H          3.87100        3.54552       -3.45057
