111
-148.55772218
P         -2.65126        1.92277        0.76174
P          0.15729        0.49752        0.49346
C         -1.69244        1.54199        2.25170
C         -0.43955        0.98066        2.12853
C         -3.56416        3.52402        0.93324
C         -2.88868        4.63728        0.16263
C         -2.20851        1.81113        3.50336
H         -3.19666        2.23154        3.59378
C         -1.46125        1.52465        4.63264
H         -1.86326        1.73396        5.61051
C         -0.20224        0.96996        4.50764
H          0.37942        0.74537        5.38655
C          0.30752        0.69301        3.25223
H          1.28206        0.24614        3.14225
Pd        -1.19197        1.64771       -1.00519
Cl        -2.81134        2.49576       -2.31199
Cl         0.25004        1.33399       -2.69294
C         -4.97773        3.16215        0.44150
C         -4.06477        0.76775        0.45194
H         -2.84123        4.40050       -0.90099
H         -3.43094        5.58006        0.26561
H         -1.86446        4.79470        0.50897
H         -5.04269        3.37963       -0.63358
H         -5.72863        3.80895        0.92039
H         -3.99505        0.48159       -0.60619
C         -5.29914        1.65957        0.68498
C         -3.99222       -0.45261        1.34381
H         -3.58392        3.75780        2.00521
H         -5.64387        1.52244        1.71913
H         -6.13498        1.32932        0.04967
H         -3.99007       -0.16386        2.39644
H         -4.84405       -1.11721        1.18236
H         -3.08044       -1.02328        1.15835
C         -1.32349       -3.72266       -0.38193
C         -1.14532       -2.79835       -1.44283
C         -0.64280       -1.54562       -1.13986
C         -0.41703       -1.16586        0.15613
C         -0.68601       -2.01838        1.19394
C         -1.16801       -3.29547        0.96167
O         -1.62682       -5.08153       -0.66257
C         -1.48906       -3.12420       -2.90478
H         -0.42031       -0.83692       -1.91852
H         -0.51611       -1.66783        2.19659
C         -1.49216       -4.20449        2.15722
C          4.68731        0.55092        0.02773
C          4.06901       -0.41732        0.85974
C          2.68715       -0.41123        0.95672
C          1.93864        0.56084        0.34543
C          2.53951        1.56246       -0.37038
C          3.91523        1.60370       -0.52652
O          6.06930        0.44452       -0.28260
C          4.86361       -1.48246        1.63217
H          2.17153       -1.18546        1.49882
H          1.91009        2.29877       -0.83884
C          4.54021        2.74795       -1.33972
C         -1.94702       -1.84815       -3.64983
C         -0.24383       -3.68403       -3.60824
C         -2.64956       -4.13176       -2.99202
C         -0.25550       -5.04762        2.50302
C         -1.87758       -3.36742        3.39849
C         -2.68926       -5.11979        1.84284
C         -0.48277       -5.89755       -0.88026
H         -2.74847       -1.34822       -3.10643
H         -1.13030       -1.14002       -3.78057
H         -2.31900       -2.09278       -4.64434
H          0.10654       -4.59350       -3.12590
H         -0.45593       -3.91574       -4.65165
H          0.57057       -2.96038       -3.58194
H         -2.37913       -5.08887       -2.55354
H         -3.52341       -3.75644       -2.46042
H         -2.93453       -4.31265       -4.02813
H         -0.44978       -5.69307        3.35924
H          0.03755       -5.67822        1.66731
H          0.59135       -4.40674        2.74787
H         -2.67946       -2.66838        3.16313
H         -2.22376       -4.01174        4.20632
H         -1.02979       -2.80200        3.78274
H         -2.46315       -5.80119        1.02624
H         -2.96028       -5.72231        2.70943
H         -3.55836       -4.52917        1.55478
H          0.43057       -5.31834       -0.73857
H         -0.49498       -6.73451       -0.18218
H         -0.50494       -6.29938       -1.89298
C          6.34729       -0.36358       -1.41955
C          4.13467       -1.85926        2.94270
C          4.99885       -2.74447        0.76683
C          6.25513       -0.95844        2.03139
C          3.68163        4.02880       -1.23340
C          5.94258        3.10275       -0.81332
C          4.61591        2.33389       -2.81738
H          4.75280       -2.51669        3.55371
H          3.91050       -0.96955        3.53062
H          3.20187       -2.38704        2.74976
H          5.52376       -2.53231       -0.16148
H          5.54955       -3.52257        1.29482
H          4.01721       -3.14142        0.50884
H          6.16710       -0.03995        2.61074
H          6.79128       -1.69026        2.63512
H          6.86500       -0.74337        1.15777
H          4.18742        4.87304       -1.70139
H          2.72251        3.91375       -1.73614
H          3.49586        4.28601       -0.19096
H          6.63303        2.27137       -0.93095
H          6.35878        3.95459       -1.35057
H          5.90211        3.35611        0.24550
H          5.23251        1.44798       -2.94770
H          5.04016        3.13204       -3.42588
H          3.62271        2.10556       -3.20360
H          6.88396        0.22505       -2.16345
H          6.98032       -1.20159       -1.12846
H          5.42058       -0.74098       -1.85369
