72
-108.40419375
Cl        -1.70208        0.75799        2.73826
Cl         1.00661       -0.85193        2.74026
P          1.13614       -1.10929       -0.31577
P         -2.26451        0.08213       -0.35778
C         -3.22930       -1.53811       -0.14740
C         -3.56598       -1.73508        1.33229
C         -4.50494       -1.49604       -0.98085
C         -3.36084        1.60754       -0.05316
C         -4.20408        1.91547       -1.29707
C         -1.48126        0.43007       -2.03833
C         -1.53302       -0.71465       -3.02852
C          1.10689        0.25655       -1.51630
C         -0.07389        0.99528       -1.96299
C          0.40158        2.10696       -2.78770
C          1.84890        2.04467       -2.84552
C          2.28269        0.88765       -2.08579
C         -2.35456       -2.70464       -0.58580
H         -2.66888       -1.70950        1.95090
H         -4.25124       -0.97882        1.70522
H         -4.29349       -1.27156       -2.02535
H         -5.20228       -0.74819       -0.60688
C         -4.29052        1.42600        1.14253
H         -4.98002        2.64526       -1.05990
H         -4.69698        1.02540       -1.68362
H         -2.10765        1.23395       -2.43609
H         -0.86353       -1.51444       -2.72067
H         -1.19476       -0.39278       -4.01562
H         -2.53757       -1.12016       -3.14386
H         -0.23264        2.80379       -3.33859
H          2.49764        2.71973       -3.40833
Pd        -0.50371       -0.29355        1.16248
H          3.31191        0.56663       -1.91199
C         -2.40492        2.76136        0.21186
H         -3.60889        2.34929       -2.09971
H         -5.07704        0.70343        0.93233
H         -3.74504        1.10752        2.02841
H         -4.78356        2.36778        1.38786
H         -1.88297        2.61672        1.15644
H         -1.66520        2.84805       -0.58531
H         -2.94397        3.70868        0.27599
H         -4.04452       -2.70303        1.48997
H         -5.01704       -2.45905       -0.94674
H         -1.41576       -2.70277       -0.03498
H         -2.84980       -3.65639       -0.38590
H         -2.13535       -2.67855       -1.64999
C          2.82214       -1.18555        0.34601
C          3.29671       -2.17062        1.17610
C          4.62558       -1.86000        1.46427
C          4.91007       -0.69629        0.79384
O          3.81218       -0.27189        0.10293
H          2.73728       -3.01143        1.55132
H          5.29614       -2.42163        2.09398
H          5.86005       -0.17635        0.80332
C          0.77496       -2.71050       -1.05938
C          0.72773       -3.88113       -0.34305
C          0.42591       -4.90109       -1.24647
C          0.30194       -4.30864       -2.47920
O          0.50994       -2.96253       -2.37778
H          0.87509       -3.98196        0.72014
H          0.31196       -5.94868       -1.02040
H          0.07062       -4.81922       -3.40580
Fe         1.25275        2.16882       -0.89513
C          2.16010        2.01446        0.95276
C          0.84699        2.60876        1.07402
C          0.81296        3.81283        0.26492
C          2.11347        3.96596       -0.36079
C          2.93772        2.84432        0.05368
H          2.49491        1.09860        1.44304
H          0.05613        2.23838        1.72855
H         -0.02136        4.51325        0.18575
H          2.42042        4.78298       -1.01753
H          3.97754        2.66946       -0.23206
