111
-148.55374531
P         -1.65614        2.71568        0.96191
P         -0.46697       -0.17632        0.49016
C         -1.23304        1.66743        2.38355
C         -0.78832        0.37898        2.17497
C         -0.50832        4.16272        0.87158
C          0.35472        4.08616       -0.37015
C         -1.32240        2.16209        3.66915
H         -1.62889        3.18326        3.82600
C         -0.99324        1.35385        4.74366
H         -1.06723        1.73893        5.74759
C         -0.56367        0.05779        4.53138
H         -0.30179       -0.56911        5.36779
C         -0.44996       -0.42779        3.24113
H         -0.07998       -1.42370        3.05467
Pd        -1.70134        1.26094       -0.83988
Cl        -3.10770        2.67757       -1.85289
Cl        -1.51529       -0.28731       -2.45983
C         -1.45787        5.37674        0.91070
C         -3.27276        3.59811        1.16757
H         -0.26501        4.05873       -1.26876
H          1.01853        4.95025       -0.44950
H          0.97282        3.18592       -0.37292
H         -1.61688        5.73125       -0.11691
H         -0.98409        6.21670        1.44078
H         -3.73623        3.60982        0.17283
C         -2.83127        5.02226        1.54923
C         -4.19223        2.91965        2.16076
H          0.10371        4.12137        1.78190
H         -2.76005        5.09234        2.64324
H         -3.60128        5.75262        1.25699
H         -4.39089        1.88509        1.87181
H         -3.75266        2.90159        3.15815
H         -5.14973        3.43997        2.23606
C         -0.57132       -4.70093       -0.00132
C         -1.73865       -3.94311       -0.27701
C         -1.69514       -2.57227       -0.08036
C         -0.53257       -1.95198        0.29390
C          0.62563       -2.66627        0.45829
C          0.65089       -4.03934        0.28057
O         -0.63352       -6.11976        0.02177
C         -3.03897       -4.58756       -0.78299
H         -2.56997       -1.96367       -0.23099
H          1.52015       -2.12862        0.72315
C          1.99043       -4.78265        0.40229
C          3.64602        1.33111       -0.76226
C          3.20665        1.51900        0.57339
C          1.96385        1.02492        0.93084
C          1.14806        0.43152        0.00397
C          1.52143        0.34985       -1.31071
C          2.74881        0.82491       -1.73700
O          4.99179        1.61795       -1.11384
C          4.06577        2.22414        1.63403
H          1.61590        1.09516        1.94600
H          0.81980       -0.07620       -2.00606
C          3.08706        0.77393       -3.23460
C         -3.90922       -4.99185        0.41621
C         -3.83437       -3.59254       -1.65896
C         -2.74120       -5.81718       -1.66048
C          3.16128       -3.86849       -0.02858
C          2.20724       -5.20373        1.86343
C          2.02473       -6.01725       -0.51664
C         -0.95042       -6.66504        1.29613
H         -4.84614       -5.43925        0.08532
H         -3.39766       -5.71338        1.04869
H         -4.14764       -4.12328        1.02959
H         -4.68430       -4.08513       -2.13058
H         -4.23014       -2.76535       -1.07180
H         -3.20479       -3.18204       -2.44805
H         -3.65851       -6.23506       -2.07441
H         -2.08700       -5.54736       -2.48886
H         -2.25063       -6.60206       -1.09005
H          2.97935       -3.44476       -1.01601
H          3.31408       -3.04936        0.67262
H          4.09453       -4.42948       -0.07203
H          3.15698       -5.72447        1.98301
H          2.21474       -4.33267        2.51831
H          1.41521       -5.86650        2.20398
H          2.99735       -6.50721       -0.47893
H          1.27617       -6.74974       -0.22502
H          1.82808       -5.73188       -1.54954
H         -0.13740       -7.30881        1.63121
H         -1.10626       -5.86738        2.02357
H         -1.85397       -7.26970        1.21981
C          5.87193        0.50897       -0.98097
C          4.95215        1.18743        2.34025
C          4.93649        3.32306        0.99829
C          3.17345        2.91339        2.69138
C          1.80552        0.92940       -4.08582
C          4.02933        1.92480       -3.63119
C          3.73421       -0.58018       -3.56204
H          4.34235        0.41960        2.81594
H          5.61699        0.69288        1.63611
H          5.56520        1.65675        3.10926
H          5.49721        3.86731        1.75779
H          5.65406        2.90415        0.29705
H          4.31732        4.03736        0.45649
H          3.77582        3.51111        3.37507
H          2.45232        3.57678        2.21547
H          2.62855        2.18962        3.29564
H          1.14924        0.06581       -3.99029
H          1.24787        1.81714       -3.78840
H          2.05209        1.02741       -5.14268
H          3.59456        2.88651       -3.36069
H          4.99075        1.84130       -3.13076
H          4.21581        1.92653       -4.70481
H          4.65152       -0.72572       -2.99635
H          3.97676       -0.65101       -4.62200
H          3.05914       -1.39915       -3.31445
H          5.33377       -0.36127       -0.60288
H          6.31145        0.27166       -1.94958
H          6.67881        0.76418       -0.29417
