75
-122.81261016
P          1.90402       -0.52214       -0.16450
C          3.34862       -1.20760       -1.00569
C          4.29826       -1.84051       -0.23457
C          5.42576       -2.37958       -0.82762
C          5.59859       -2.27901       -2.19344
C          4.65028       -1.63678       -2.96368
C          3.52780       -1.09863       -2.36481
H          2.79937       -0.56851       -2.95204
H          4.78758       -1.54841       -4.02893
H          6.47613       -2.69835       -2.65798
H          6.16659       -2.87733       -0.22373
H          4.15215       -1.91279        0.83147
C          1.62485       -1.58293        1.25708
C          1.90097       -1.13249        2.52765
C          1.80196       -1.99986        3.59992
C          1.43278       -3.31377        3.38925
C          1.15846       -3.76124        2.11197
C          1.25897       -2.89172        1.04063
H          1.06974       -3.23017        0.03380
H          0.86754       -4.78581        1.94858
H          1.35146       -3.98988        4.22460
H          2.01159       -1.64982        4.59722
H          2.19616       -0.10610        2.67344
C          2.26415        1.16308        0.34235
C          3.42042        1.81973       -0.00759
C          3.58775        3.16301        0.30025
C          2.55680        3.83196        0.95964
C          1.38838        3.18734        1.30177
C          1.24335        1.82185        1.01001
O          0.07332        1.12271        1.34654
C         -1.13580        1.78353        1.07784
C         -1.29553        3.15135        1.35017
C         -2.48711        3.76688        1.03769
C         -3.53027        3.06175        0.43850
C         -3.35818        1.71000        0.17575
C         -2.17975        1.07834        0.49777
P         -1.79410       -0.64156        0.11030
C         -1.74481       -1.57527        1.65167
C         -1.40117       -0.95899        2.83293
C         -1.45534       -1.66201        4.02178
C         -1.84807       -2.98551        4.01948
C         -2.18324       -3.60550        2.83218
C         -2.13373       -2.89580        1.64586
H         -2.40909       -3.36332        0.71402
H         -2.48692       -4.63939        2.82898
H         -1.88614       -3.53722        4.94454
H         -1.18253       -1.17946        4.94584
H         -1.07283        0.06627        2.81641
C         -3.09523       -1.38947       -0.88666
C         -4.38396       -1.38251       -0.40296
C         -5.39789       -1.97395       -1.13455
C         -5.11135       -2.57850       -2.34212
C         -3.81432       -2.59969       -2.81464
C         -2.80292       -2.00808       -2.08046
H         -1.78602       -2.02552       -2.43750
H         -3.58922       -3.07554       -3.75495
H         -5.90036       -3.03835       -2.91456
H         -6.40830       -1.96546       -0.76001
H         -4.58887       -0.93012        0.55471
Pd        -0.06504       -0.02860       -1.41364
Cl        -1.76931        0.86744       -2.59719
Cl         1.37480        0.99082       -2.81409
H         -4.14240        1.15947       -0.31182
C         -4.81287        3.73648        0.10428
H         -5.22795        3.34747       -0.82647
H         -4.67310        4.81106       -0.01970
H         -5.54957        3.58100        0.89343
H         -2.60604        4.81422        1.25223
S          0.04927        4.04381        2.08868
H          2.66572        4.87557        1.19654
C          4.84760        3.86839       -0.05641
H          4.18940        1.29029       -0.54310
H          5.25467        3.49174       -0.99572
H          4.67988        4.93963       -0.17471
H          5.60239        3.72873        0.71848
