59
-75.80597161
Cl         1.71690        0.40327        2.28682
P          1.63504       -0.10001       -0.84100
P         -1.60730       -0.13634       -0.76717
C          0.59666        0.26860       -2.32428
H          0.33473        1.32946       -2.31716
H          1.19382        0.08382       -3.22271
C         -0.63948       -0.58430       -2.27245
H         -0.37681       -1.64373       -2.21180
H         -1.27894       -0.44954       -3.15045
C          2.63513       -1.62111       -1.22145
H          2.48282       -1.77537       -2.29842
C          3.02194        1.10953       -0.59923
H          3.11856        1.24330        0.48497
C         -3.01382       -1.29083       -0.44162
H         -3.21562       -1.22472        0.63483
C         -2.58259        1.40413       -1.10531
H         -2.24007        1.78005       -2.07695
C          4.08802       -1.17725       -0.97877
H          4.39324       -1.46243        0.03529
H          4.77079       -1.71831       -1.65132
C          4.24662        0.35670       -1.14609
H          4.36548        0.60046       -2.21084
H          5.16579        0.71380       -0.65698
C         -4.15482       -0.63236       -1.23459
H         -4.10195       -0.97413       -2.27803
H         -5.13137       -0.97554       -0.85900
C         -4.04735        0.91722       -1.18262
H         -4.58558        1.28174       -0.29728
H         -4.55986        1.37334       -2.04253
C          2.20360       -2.87553       -0.46284
H          2.80290       -3.72610       -0.81627
H          1.17219       -3.11854       -0.74800
C          2.77545        2.45909       -1.26337
H          3.70966        3.03781       -1.25585
H          2.54670        2.29726       -2.32460
C         -2.70882       -2.73264       -0.82432
H         -3.63905       -3.31742       -0.80608
H         -2.37179       -2.76118       -1.86838
C         -2.34248        2.44230       -0.01576
H         -2.69927        2.03698        0.94077
H         -1.26314        2.58128        0.12327
C          2.30882       -2.77994        1.05209
H          1.91172       -3.67078        1.54446
H          1.75597       -1.92517        1.43873
H          3.34180       -2.66693        1.38328
C          1.66891        3.25543       -0.59181
H          0.72903        2.70515       -0.60150
H          1.49395        4.21498       -1.08364
H          1.90730        3.45872        0.45395
C         -1.67519       -3.36703        0.09281
H         -1.40301       -4.37600       -0.22506
H         -2.04430       -3.43189        1.11820
H         -0.76369       -2.77016        0.12576
C         -3.00611        3.77998       -0.30754
H         -2.81971        4.51031        0.48314
H         -2.63698        4.20629       -1.24230
H         -4.08777        3.67467       -0.40763
Cl        -1.58362        0.09977        2.39382
Pd         0.03728        0.02988        0.84646
