171
-217.84501440
P         -1.62155        0.40132       -0.31511
P          1.65539       -0.37292       -0.40590
C         -0.93669        1.37616       -1.65562
C          0.89332       -1.31995       -1.72361
C         -0.14288        0.77678       -2.62676
C          0.45800        1.59336       -3.60329
C          0.21393        2.95702       -3.59291
C         -0.59783        3.52714       -2.63544
C         -1.16613        2.73059       -1.66148
C          1.12258       -2.67312       -1.76825
C          0.51399       -3.44735       -2.73652
C         -0.34068       -2.85770       -3.64376
C         -0.58444       -1.49465       -3.61531
C          0.06014       -0.69938       -2.64804
Cl         1.70595        0.54777        2.72724
Cl        -1.40600       -0.30745        2.91272
C         -1.51954       -0.90141       -4.61063
C          1.32889        1.01070       -4.65960
H         -0.78501        4.58851       -2.64280
H         -1.79421        3.16798       -0.90258
H          1.78062       -3.12534       -1.04345
H          0.70314       -4.50747       -2.77915
H          0.66840        3.57491       -4.34893
H         -0.83194       -3.45951       -4.38974
C         -3.91972       -3.29159       -1.53755
C         -4.22558       -2.08106       -2.14788
C         -3.47859       -0.96526       -1.78817
C         -2.47658       -1.07333       -0.85557
C         -2.18838       -2.27544       -0.26003
C         -2.90958       -3.41496       -0.59089
H         -4.50324       -4.15467       -1.79674
H         -3.68317        0.00229       -2.21450
H         -1.40996       -2.31762        0.48280
C         -4.39427        2.80208        2.35967
C         -4.90958        1.73458        1.63307
C         -4.04154        1.03143        0.80989
C         -2.72014        1.38813        0.71343
C         -2.22770        2.44532        1.43692
C         -3.05497        3.16912        2.28507
H         -5.04936        3.35532        3.00445
H         -4.39858        0.18636        0.24764
H         -1.18385        2.69684        1.35341
C          4.22284       -2.87572        2.37288
C          2.86096       -3.13673        2.30200
C          2.10397       -2.39152        1.40666
C          2.69034       -1.41168        0.64229
C          4.03612       -1.15606        0.73970
C          4.83451       -1.89299        1.60577
H          4.82227       -3.44188        3.06186
H          1.04233       -2.54775        1.32277
H          4.45415       -0.35917        0.15117
C          3.97519        3.22913       -1.85074
C          2.93843        3.41227       -0.94410
C          2.24167        2.28863       -0.51867
C          2.56315        1.04688       -1.00621
C          3.58126        0.88301       -1.91335
C          4.32044        1.97706       -2.34718
H          4.53373        4.09072       -2.16417
H          1.44433        2.37086        0.19953
H          3.80690       -0.10693       -2.27371
Pd         0.06720        0.10389        1.25447
C         -5.51917       -0.59519       -3.75989
C         -5.40888       -1.99428       -3.12242
C         -6.71004       -2.28367       -2.35160
C         -5.23447       -3.03064       -4.24887
H         -5.70094        0.16843       -3.00395
H         -4.60911       -0.33618       -4.29997
H         -6.34642       -0.55745       -4.46852
H         -7.57709       -2.21440       -3.00826
H         -6.69697       -3.28319       -1.91820
H         -6.84340       -1.56985       -1.53897
H         -6.05049       -2.96360       -4.96824
H         -4.30031       -2.86835       -4.78490
H         -5.22246       -4.04694       -3.85745
C         -1.16050       -5.17553       -0.27601
C         -2.58477       -4.74111        0.10987
C         -3.56391       -5.85950       -0.29561
C         -2.67965       -4.54490        1.63521
H         -0.87197       -6.08700        0.24716
H         -1.09742       -5.36706       -1.34664
H         -0.43412       -4.40116       -0.03449
H         -3.32751       -6.78704        0.22575
H         -4.59018       -5.59146       -0.04505
H         -3.50962       -6.06109       -1.36525
H         -3.68232       -4.22649        1.91957
H         -2.45699       -5.47192        2.16320
H         -1.98073       -3.78665        1.98431
C         -6.44439       -0.16635        2.19318
C         -6.37864        1.29627        1.71330
C         -7.01716        1.41085        0.31654
C         -7.18298        2.16984        2.69457
H         -7.47746       -0.50104        2.28520
H         -5.93899       -0.83576        1.49791
H         -5.96580       -0.27322        3.16639
H         -6.50595        0.77470       -0.40497
H         -8.06521        1.11287        0.34033
H         -6.96521        2.43673       -0.04754
H         -6.77192        2.10760        3.70201
H         -7.18060        3.21421        2.38308
H         -8.22156        1.84247        2.74137
C         -1.22745        3.83576        3.87257
C         -2.46367        4.33115        3.09532
C         -3.47756        4.89451        4.10948
C         -2.05373        5.45629        2.12946
H         -0.81414        4.62896        4.49511
H         -1.49056        2.99957        4.51995
H         -0.43899        3.50010        3.20056
H         -4.34916        5.31163        3.60563
H         -3.81303        4.11907        4.79796
H         -3.02917        5.69226        4.70154
H         -2.91858        5.82573        1.57874
H         -1.61165        6.29397        2.66855
H         -1.32472        5.10130        1.40291
C          2.54797       -3.82113        4.69444
C          2.23518       -4.18646        3.23102
C          2.82017       -5.57060        2.89985
C          0.70474       -4.24661        3.06976
H          2.17003       -2.82617        4.92924
H          2.08451       -4.52939        5.38094
H          3.62009       -3.82594        4.88623
H          3.89996       -5.58741        3.04377
H          2.38545       -6.34069        3.53688
H          2.61663       -5.83562        1.86238
H          0.27043       -4.97679        3.75243
H          0.24993       -3.27981        3.28551
H          0.43339       -4.54157        2.05788
C          6.59106       -1.12019        3.21329
C          6.33435       -1.61500        1.77838
C          6.82870       -0.53933        0.79294
C          7.13036       -2.90836        1.52212
H          6.01849       -0.21506        3.41510
H          6.29909       -1.87015        3.94756
H          7.64628       -0.89471        3.36629
H          7.89703       -0.36189        0.91598
H          6.66177       -0.85380       -0.23644
H          6.31708        0.40928        0.95481
H          6.86444       -3.68774        2.23504
H          6.93292       -3.28906        0.52016
H          8.20195       -2.73005        1.61018
C          1.36474        4.81002        0.48157
C          2.62077        4.81603       -0.41128
C          2.37004        5.77222       -1.59249
C          3.81307        5.31914        0.42129
H          1.12962        5.81704        0.82572
H          0.50123        4.43548       -0.06690
H          1.51116        4.18753        1.36397
H          1.55807        5.40499       -2.21889
H          2.09926        6.76662       -1.23802
H          3.25541        5.87375       -2.21862
H          3.61570        6.31149        0.82635
H          4.01002        4.64610        1.25560
H          4.71831        5.37705       -0.18225
C          6.51445        0.80645       -2.66340
C          5.50025        1.76746       -3.30965
C          6.22131        3.09211       -3.62648
C          4.99222        1.16381       -4.63067
H          6.86769        1.20458       -1.71249
H          6.06875       -0.16994       -2.47773
H          7.37977        0.65903       -3.30938
H          6.61911        3.54875       -2.72035
H          7.05759        2.92395       -4.30501
H          5.54676        3.80156       -4.10552
H          4.30469        1.84782       -5.12615
H          5.81943        0.97063       -5.31353
H          4.47256        0.22139       -4.46203
H         -2.43050       -1.49549       -4.68509
H          2.08059        1.73078       -4.98346
H         -1.06371       -0.86432       -5.60096
H         -1.81044        0.11256       -4.33313
H          0.74414        0.72478       -5.53460
H          1.85077        0.12433       -4.29615
