111
-148.55258106
P         -2.68255        2.05805        0.55645
P          0.09348        0.52692        0.43325
C         -1.75269        1.74016        2.08357
C         -0.52594        1.11547        2.01904
C         -3.69177        3.60345        0.70543
C         -3.41897        4.55323       -0.43970
C         -2.27091        2.10711        3.30944
H         -3.23860        2.57849        3.35992
C         -1.55310        1.85388        4.46576
H         -1.95775        2.14080        5.42260
C         -0.32139        1.23169        4.39601
H          0.23587        1.03205        5.29644
C          0.19197        0.85656        3.16763
H          1.14384        0.35396        3.09487
Pd        -1.16072        1.68352       -1.14039
Cl        -2.61169        2.44982       -2.66093
Cl         0.48337        1.18527       -2.59315
C         -5.13851        3.06734        0.74135
C         -4.01664        0.81485        0.24314
H         -3.98774        5.48046       -0.33704
H         -2.35879        4.81009       -0.50003
H         -3.70238        4.09884       -1.39003
H         -5.81465        3.80577        0.28618
H         -5.47365        2.96286        1.78379
H         -3.74198        0.27738       -0.67514
C         -5.26404        1.69468        0.02147
C         -4.13798       -0.14836        1.40350
H         -3.41728        4.07354        1.65916
H         -6.15935        1.15652        0.36551
H         -5.41415        1.86260       -1.05527
H         -4.38555        0.38544        2.32298
H         -4.91969       -0.89164        1.22934
H         -3.19920       -0.67917        1.57431
C         -1.27256       -3.75619       -0.29535
C         -1.05141       -2.88437       -1.39206
C         -0.62237       -1.59663       -1.12563
C         -0.50623       -1.13944        0.15926
C         -0.82283       -1.94323        1.22229
C         -1.24110       -3.24903        1.02918
O         -1.48205       -5.14290       -0.51961
C         -1.23969       -3.31329       -2.85496
H         -0.34841       -0.92874       -1.92351
H         -0.71922       -1.53892        2.21368
C         -1.60158       -4.10842        2.25074
C          4.64164        0.46140        0.22304
C          3.91560       -0.73771        0.43648
C          2.53665       -0.65869        0.52610
C          1.87946        0.52956        0.33912
C          2.56778        1.67273        0.03041
C          3.94956        1.66381       -0.07503
O          6.05733        0.46396        0.33828
C          4.59344       -2.10955        0.57929
H          1.94998       -1.53516        0.74098
H          2.00559        2.57533       -0.13583
C          4.67701        2.94858       -0.50171
C         -1.68587       -2.10948       -3.71752
C          0.09324       -3.84438       -3.40359
C         -2.33566       -4.38636       -2.98416
C         -2.14464       -3.23077        3.40145
C         -2.70395       -5.12589        1.90542
C         -0.34240       -4.83683        2.74506
C         -0.28308       -5.90540       -0.58346
H         -1.94758       -2.43102       -4.72520
H         -2.55955       -1.62408       -3.28331
H         -0.89623       -1.36616       -3.81511
H          0.43986       -4.70384       -2.83463
H         -0.00635       -4.14754       -4.44547
H          0.86530       -3.07727       -3.34736
H         -3.27343       -4.02919       -2.55986
H         -2.51169       -4.64302       -4.02847
H         -2.06122       -5.29981       -2.46283
H         -1.37621       -2.57468        3.80750
H         -2.97784       -2.61668        3.06194
H         -2.50172       -3.85052        4.22366
H         -2.36622       -5.83789        1.15644
H         -3.00440       -5.69233        2.78652
H         -3.58413       -4.61869        1.51159
H         -0.56224       -5.44632        3.62120
H          0.06335       -5.48917        1.97567
H          0.43434       -4.12216        3.01662
H          0.58443       -5.26639       -0.41333
H         -0.30986       -6.69071        0.17185
H         -0.19978       -6.37782       -1.56199
C          6.53127        0.73010        1.65220
C          5.87916       -2.18102       -0.26411
C          4.91476       -2.36729        2.05899
C          3.65913       -3.23432        0.07404
C          5.95411        2.62324       -1.29780
C          3.77770        3.80190       -1.42514
C          5.02672        3.77463        0.74506
H          6.62214       -1.46796        0.08449
H          6.32603       -3.17365       -0.21471
H          5.66528       -1.95651       -1.30855
H          4.00531       -2.35009        2.65926
H          5.38881       -3.33944        2.19195
H          5.58642       -1.60897        2.45431
H          2.79408       -3.36388        0.72296
H          3.30263       -3.01937       -0.93310
H          4.18291       -4.18954        0.04678
H          5.72015        1.99708       -2.15813
H          6.43298        3.53267       -1.65982
H          6.67858        2.09176       -0.68570
H          2.92538        4.21538       -0.88824
H          4.33398        4.64313       -1.83793
H          3.40285        3.20708       -2.25774
H          5.53453        4.69905        0.47115
H          5.67839        3.21932        1.41541
H          4.12567        4.03562        1.29962
H          7.16571        1.61618        1.63912
H          5.69480        0.89139        2.33338
H          7.12884       -0.11118        2.00279
