111
-148.55520684
P         -2.63101        1.90950        0.67886
P          0.19048        0.47001        0.45177
C         -1.67015        1.55956        2.17625
C         -0.41843        0.99176        2.06929
C         -3.54416        3.51357        0.82046
C         -2.87004        4.61576        0.03301
C         -2.18692        1.85883        3.42079
H         -3.17427        2.28328        3.50038
C         -1.44219        1.59687        4.55775
H         -1.84518        1.83032        5.52974
C         -0.18475        1.03542        4.44816
H          0.39475        0.82963        5.33307
C          0.32601        0.72756        3.20032
H          1.29906        0.27417        3.10142
Pd        -1.18270        1.53531       -1.07897
Cl        -2.73621        2.47480       -2.40377
Cl         0.26846        1.22857       -2.76253
C         -4.95759        3.14149        0.33632
C         -4.04551        0.74770        0.39888
H         -2.82449        4.36467       -1.02719
H         -3.41197        5.55997        0.12378
H         -1.84519        4.77779        0.37523
H         -5.02199        3.33447       -0.74347
H         -5.70842        3.79926        0.80016
H         -3.97863        0.43757       -0.65266
C         -5.27923        1.64481        0.61426
C         -3.96969       -0.45246        1.31775
H         -3.56452        3.76556        1.88827
H         -5.62184        1.53119        1.65196
H         -6.11652        1.30068       -0.01169
H         -3.96778       -0.14046        2.36372
H         -4.82007       -1.12253        1.17165
H         -3.05635       -1.02491        1.14507
C         -1.37241       -3.73198       -0.33854
C         -0.95692       -2.91581       -1.42141
C         -0.48200       -1.64788       -1.13818
C         -0.35854       -1.20878        0.15295
C         -0.65048       -2.03403        1.20647
C         -1.11979       -3.31953        0.99539
O         -2.08122       -4.93687       -0.58874
C         -1.06575       -3.35749       -2.88837
H         -0.22297       -0.96478       -1.92848
H         -0.52570       -1.65129        2.20411
C         -1.38134       -4.22479        2.20873
C          4.73154        0.64364        0.14447
C          4.10099       -0.43919        0.81252
C          2.71897       -0.43544        0.90369
C          1.97099        0.54850        0.31022
C          2.56845        1.52647       -0.44086
C          3.94544        1.57557       -0.58494
O          6.13191        0.83524        0.26571
C          4.86015       -1.62658        1.42843
H          2.20586       -1.21500        1.44147
H          1.94125        2.24838       -0.93537
C          4.53031        2.60901       -1.56318
C          0.04158       -2.69455       -3.73961
C         -0.88767       -4.88012       -3.02604
C         -2.43282       -2.92954       -3.44379
C         -0.39023       -3.90074        3.35005
C         -2.81166       -3.99185        2.71879
C         -1.18058       -5.70816        1.84933
C         -3.49311       -4.77349       -0.64095
H         -0.10845       -1.61995       -3.83182
H          1.02364       -2.86705       -3.30017
H          0.04996       -3.10319       -4.74974
H          0.06163       -5.19574       -2.59455
H         -1.68142       -5.42024       -2.51613
H         -0.90248       -5.18338       -4.07260
H         -3.24588       -3.38837       -2.88614
H         -2.55396       -1.84846       -3.37689
H         -2.53691       -3.21687       -4.48968
H          0.63818       -3.93410        2.99104
H         -0.57264       -2.91536        3.77624
H         -0.48531       -4.62216        4.16130
H         -3.02663       -4.62378        3.58010
H         -2.94931       -2.95374        3.02025
H         -3.54615       -4.21281        1.94784
H         -1.90033       -6.03699        1.10397
H         -0.18237       -5.87309        1.44511
H         -1.30103       -6.34380        2.72622
H         -3.76193       -3.72908       -0.47709
H         -3.86266       -5.09471       -1.61466
H         -3.96198       -5.39335        0.12307
C          6.48013        1.65843        1.36610
C          4.85290       -1.49701        2.96041
C          4.16352       -2.94719        1.02976
C          6.31176       -1.71473        0.92626
C          4.41715        4.01516       -0.95249
C          6.00010        2.31784       -1.91293
C          3.73527        2.56532       -2.88752
H          3.83332       -1.47076        3.34397
H          5.36485       -2.33934        3.42499
H          5.35150       -0.58389        3.27995
H          3.16443       -3.02442        1.45542
H          4.07525       -3.02336       -0.05361
H          4.73192       -3.80760        1.38204
H          6.89548       -0.85880        1.25686
H          6.80318       -2.61278        1.29985
H          6.34081       -1.73844       -0.16252
H          3.37902        4.26178       -0.73218
H          4.98026        4.08671       -0.02380
H          4.80292        4.76931       -1.63798
H          6.36462        3.00117       -2.67955
H          6.64178        2.42817       -1.04195
H          6.11223        1.29947       -2.28342
H          4.17663        3.23102       -3.62866
H          2.70036        2.87368       -2.75052
H          3.73197        1.55697       -3.30028
H          6.00520        2.63341        1.26852
H          6.14962        1.19822        2.29587
H          7.56262        1.78523        1.39184
