171
-217.83866315
P         -1.49948        0.15139       -0.20835
P          1.71216       -0.67223        0.18061
C         -0.72118        0.72343       -1.73109
C          0.88865       -1.89393       -0.86618
C          0.04283       -0.17568       -2.46393
C          0.68750        0.26529       -3.63512
C          0.50682        1.57598       -4.04752
C         -0.27358        2.44958       -3.31856
C         -0.88579        2.01786       -2.15855
C          0.95617       -3.18522       -0.39853
C          0.30276       -4.20317       -1.06556
C         -0.43465       -3.91266       -2.19305
C         -0.52661       -2.61719       -2.67343
C          0.15663       -1.58332       -2.00564
Cl         1.22691       -0.38540        3.38361
Cl        -1.83310       -1.07943        2.95651
C         -1.37139       -2.35244       -3.87024
C          1.53943       -0.66363       -4.42851
H         -0.40086        3.46742       -3.64932
H         -1.49593        2.69349       -1.58491
H          1.51568       -3.39172        0.50212
H          0.36101       -5.21506       -0.69922
H          0.98261        1.91082       -4.95353
H         -0.96149       -4.69798       -2.70863
C         -4.62209       -2.94791       -1.29602
C         -3.84567       -3.15531       -0.16201
C         -2.90217       -2.19177        0.16264
C         -2.72767       -1.08638       -0.62928
C         -3.49128       -0.90450       -1.75649
C         -4.46430       -1.83253       -2.10993
H         -5.38431       -3.66092       -1.54699
H         -2.31811       -2.28896        1.06004
H         -3.31263       -0.03636       -2.36681
C         -3.81713        3.61510        1.62835
C         -4.11043        3.18871        0.34048
C         -3.38359        2.12073       -0.17023
C         -2.38922        1.52464        0.56738
C         -2.12269        1.96029        1.84448
C         -2.83883        3.00907        2.40446
H         -4.37051        4.43856        2.04100
H         -3.58891        1.74695       -1.15753
H         -1.36008        1.47238        2.42065
C          5.79831       -2.37846        1.16028
C          5.30774       -2.47080       -0.13763
C          4.04493       -1.95220       -0.39283
C          3.31059       -1.37008        0.61080
C          3.81026       -1.28965        1.88436
C          5.06634       -1.79389        2.18808
H          6.77250       -2.77276        1.37594
H          3.62551       -2.00640       -1.38406
H          3.20426       -0.84130        2.65025
C          2.73604        3.50985       -1.24954
C          3.37900        2.41516       -1.81468
C          3.00548        1.15023       -1.38030
C          2.02708        0.99318       -0.42967
C          1.40852        2.08973        0.12560
C          1.75654        3.37448       -0.27222
H          3.02268        4.49491       -1.56277
H          3.50694        0.27790       -1.76270
H          0.66304        1.94855        0.88754
Pd        -0.13472       -0.51350        1.60130
C         -2.65791       -5.13442        0.81059
C         -4.00082       -4.38304        0.74557
C         -5.07715       -5.35064        0.21819
C         -4.40427       -3.92073        2.15813
H         -2.34776       -5.45239       -0.18448
H         -1.87020       -4.50325        1.22048
H         -2.73593       -6.02077        1.43976
H         -4.82815       -5.70612       -0.78156
H         -5.16411       -6.22247        0.86651
H         -6.05408       -4.86900        0.18158
H         -4.53865       -4.77262        2.82428
H         -3.64497       -3.27315        2.59491
H         -5.34031       -3.36359        2.12790
C         -6.80700       -1.27749       -2.77445
C         -5.40181       -1.61025       -3.30649
C         -5.46801       -2.88111       -4.17592
C         -4.92175       -0.44476       -4.19456
H         -7.19886       -2.09318       -2.16746
H         -6.78154       -0.38200       -2.15367
H         -7.50437       -1.10206       -3.59340
H         -6.10852       -2.72343       -5.04358
H         -4.47872       -3.15773       -4.53786
H         -5.87146       -3.72665       -3.62082
H         -3.91047       -0.62100       -4.55990
H         -5.57153       -0.32646       -5.06157
H         -4.93211        0.49840       -3.64920
C         -5.39952        3.23739       -1.85338
C         -5.19496        3.90275       -0.47771
C         -4.77384        5.36674       -0.69938
C         -6.53020        3.85294        0.28773
H         -4.48631        3.27257       -2.44731
H         -5.70135        2.19604       -1.74271
H         -6.17888        3.74842       -2.41847
H         -5.51641        5.90153       -1.29130
H         -4.65946        5.89245        0.24798
H         -3.82101        5.41696       -1.22636
H         -7.32540        4.33100       -0.28406
H         -6.82508        2.82124        0.47871
H         -6.45797        4.36362        1.24714
C         -1.48971        2.66661        4.53784
C         -2.59709        3.48549        3.84396
C         -3.89661        3.32244        4.65387
C         -2.17751        4.96615        3.82862
H         -0.54039        2.76048        4.01242
H         -1.33508        3.01285        5.55949
H         -1.75359        1.61021        4.58472
H         -4.21973        2.28159        4.65469
H         -3.75308        3.63259        5.68874
H         -4.70310        3.92288        4.23472
H         -1.98132        5.32671        4.83820
H         -1.27170        5.10298        3.24000
H         -2.95507        5.59414        3.39535
C          7.46287       -3.64799       -0.81309
C          6.09882       -3.11110       -1.28710
C          6.34208       -2.05677       -2.38328
C          5.28715       -4.28425       -1.86831
H          8.08271       -2.84603       -0.41253
H          7.33868       -4.40837       -0.04225
H          8.00762       -4.10299       -1.64029
H          5.40259       -1.67607       -2.78240
H          6.90449       -1.21208       -1.98619
H          6.90917       -2.47942       -3.21244
H          4.33251       -3.94610       -2.26984
H          5.83235       -4.77436       -2.67473
H          5.08111       -5.02796       -1.09880
C          5.65609       -0.20402        4.03378
C          5.58730       -1.68825        3.62852
C          6.99310       -2.30144        3.77507
C          4.62610       -2.43723        4.57066
H          4.67189        0.26169        3.99831
H          6.04037       -0.09362        5.04760
H          6.31195        0.34856        3.36132
H          6.98888       -3.35947        3.51365
H          7.71310       -1.78934        3.13701
H          7.34596       -2.21765        4.80292
H          4.97867       -2.39635        5.60102
H          3.62701       -2.00387        4.54358
H          4.54365       -3.48501        4.28270
C          4.72385        4.01948       -3.26532
C          4.54708        2.56084       -2.80124
C          4.29592        1.68853       -4.04406
C          5.84071        2.10166       -2.10426
H          4.97785        4.67161       -2.43001
H          5.52840        4.09742       -3.99653
H          3.81301        4.39328       -3.73296
H          5.10933        1.79028       -4.76229
H          4.21809        0.63455       -3.78181
H          3.37249        1.98570       -4.53900
H          6.03974        2.70998       -1.22220
H          5.76447        1.06389       -1.78164
H          6.69700        2.18408       -2.77335
C          1.37186        4.48682        1.93744
C          1.11892        4.58907        0.42172
C         -0.39372        4.61049        0.14768
C          1.71877        5.91703       -0.08002
H          2.44008        4.43014        2.14560
H          0.97322        5.35560        2.46035
H          0.90329        3.59810        2.35687
H         -0.87252        5.44937        0.65229
H         -0.59058        4.70533       -0.91958
H         -0.86667        3.69682        0.49999
H          1.26479        6.76399        0.43442
H          2.79235        5.95698        0.10338
H          1.54292        6.04909       -1.14747
H         -1.48122       -1.28398       -4.05834
H          2.13658       -1.30055       -3.77377
H         -2.37006       -2.76638       -3.72983
H         -0.94181       -2.81151       -4.76184
H          2.22558       -0.11910       -5.07817
H          0.92991       -1.30889       -5.06170
