105
-153.06069128
Cl         0.10216        3.43067        1.94498
Pd        -0.19029        1.95301        0.28198
P         -0.67669        0.25505       -1.31524
N          0.16070       -1.17107       -1.95877
C          0.23515       -2.49948       -1.55078
C         -0.11276       -2.97377       -0.25610
C          0.19581       -4.30625        0.09637
C          0.01672       -4.74511        1.53217
C          0.80885       -6.00968        1.89455
C          0.58374       -7.10150        0.84469
C          1.03951       -6.62928       -0.54559
C          0.71475       -5.18713       -0.85502
C          0.97559       -4.71966       -2.13595
C          0.76041       -3.40785       -2.46939
H          1.01059       -3.05797       -3.45607
H          1.38293       -5.39961       -2.86517
H          2.12337       -6.76606       -0.64155
H          1.09808       -8.02955        1.13167
H          1.87780       -5.76712        1.94346
H          0.30525       -3.91837        2.19378
C         -0.70745       -2.10084        0.79196
C          0.11428       -1.11649        1.40094
C         -0.34577       -0.44604        2.53474
C         -1.59506       -0.70704        3.03432
C         -2.43953       -1.63206        2.42707
C         -3.79988       -1.85929        3.04472
C         -4.74673       -2.75722        2.22786
C         -3.98474       -3.89111        1.53420
C         -2.90816       -3.31408        0.60532
C         -1.99765       -2.33386        1.30146
H         -2.32303       -4.11655        0.14197
H         -4.67126       -4.54863        0.98226
H         -5.25835       -2.15264        1.46940
H         -4.26818       -0.88261        3.22155
H         -1.94407       -0.17786        3.90479
H          0.27944        0.29942        2.99081
N          1.27174       -0.73919        0.72610
P          1.79091        0.88751        0.96362
C          2.88413        1.39351       -0.35615
C          3.14333        2.73152       -0.53482
C          3.90848        3.14166       -1.61168
C          4.40596        2.21469       -2.51832
C          4.14060        0.86722       -2.31213
C          3.37525        0.45813       -1.23524
H          3.15046       -0.58519       -1.08454
H          4.52983        0.14104       -3.00514
C          5.23485        2.65460       -3.67443
H          4.11435        4.18785       -1.76019
H          2.72196        3.44731        0.15383
C          2.63216        0.95017        2.54632
C          3.50378       -0.07093        2.84145
C          4.17730       -0.07271        4.05057
C          3.97502        0.94558        4.97270
C          3.09536        1.97085        4.65236
C          2.42480        1.96875        3.44458
H          1.72871        2.75222        3.19953
H          2.93819        2.77031        5.35617
C          4.71707        0.95865        6.26384
H          4.86482       -0.86740        4.28469
H          3.64630       -0.86530        2.12511
H          1.12342       -0.84444       -0.27690
H          0.39839       -0.97083       -2.92242
C         -0.56108        1.41387       -2.68876
C         -1.66605        1.80949       -3.40366
C         -1.52479        2.70463       -4.44787
C         -0.27598        3.21216       -4.78075
C          0.82944        2.79055       -4.05505
C          0.68364        1.89573       -3.01126
H          1.53834        1.57726       -2.43919
H          1.80501        3.16894       -4.30808
C         -0.12138        4.16104       -5.91786
H         -2.38769        3.01881       -5.00986
H         -2.63718        1.42715       -3.13678
C         -2.41238       -0.16707       -1.15182
C         -2.94562       -1.01114       -2.09678
C         -4.29222       -1.32791       -2.05794
C         -5.11088       -0.80369       -1.06752
C         -4.55310        0.04541       -0.12067
C         -3.20890        0.36452       -0.16534
H         -2.78215        1.03219        0.56461
H         -5.17840        0.45972        0.65152
C         -6.55562       -1.16187       -1.02287
H         -4.71444       -1.99018       -2.79428
H         -2.30269       -1.42032       -2.86027
Cl        -1.86701        3.19256       -0.55660
H          0.59588       -7.26258       -1.32450
H          0.54040       -6.36892        2.89814
H         -0.48337       -7.35548        0.81196
H         -1.04693       -4.91801        1.72671
H         -3.50980       -4.52660        2.29191
H         -3.39072       -2.79940       -0.23138
H         -3.65317       -2.29496        4.04035
H         -5.54618       -3.16125        2.86477
H          5.10030        1.99091       -4.52976
H          4.96366        3.66221       -3.99274
H          6.29388        2.65737       -3.41310
H          4.94489       -0.05465        6.59760
H          5.65885        1.49988        6.16369
H          4.13306        1.44151        7.04860
H          0.00504        3.62221       -6.85786
H         -0.99647        4.80532       -6.01350
H          0.74866        4.80426       -5.77879
H         -7.04851       -0.90485       -1.96147
H         -6.68520       -2.23230       -0.85656
H         -7.07256       -0.63417       -0.22026
