111
-148.55392047
P         -1.40756        2.63869        1.18079
P         -0.29297       -0.24503        0.52010
C         -0.91421        1.52986        2.53093
C         -0.49557        0.24827        2.24274
C         -0.23275        4.06272        1.07158
C          0.53954        4.02029       -0.22994
C         -0.92269        1.97079        3.83890
H         -1.20808        2.98701        4.05588
C         -0.54004        1.11535        4.85766
H         -0.55119        1.45831        5.87937
C         -0.13733       -0.17394        4.56656
H          0.16572       -0.83796        5.35929
C         -0.10428       -0.60553        3.25272
H          0.24151       -1.59664        3.00398
Pd        -1.60959        1.24858       -0.65617
Cl        -3.11740        2.65274       -1.53193
Cl        -1.55019       -0.19615       -2.37930
C         -1.14606        5.29515        1.22791
C         -2.98528        3.54809        1.52163
H          1.13606        3.10924       -0.31054
H         -0.14193        4.04082       -1.08291
H          1.21507        4.87393       -0.32240
H         -1.36078        5.70166        0.23013
H         -0.61771        6.09787        1.76407
H         -3.50472        3.61545        0.55709
C         -2.48496        4.94297        1.93721
C         -3.86286        2.84700        2.53664
H          0.43997        3.96755        1.93393
H         -2.34325        4.96125        3.02643
H         -3.25319        5.70300        1.72754
H         -4.80017        3.38611        2.69166
H         -4.10554        1.83188        2.21425
H         -3.36661        2.77255        3.50437
C         -0.92023       -4.70611       -0.15581
C         -1.85999       -3.96524        0.60890
C         -1.61937       -2.61620        0.81520
C         -0.54200       -1.99349        0.24032
C          0.29576       -2.67726       -0.60152
C          0.10919       -4.02534       -0.85856
O         -0.96319       -6.12414       -0.15755
C         -3.14044       -4.57070        1.20849
H         -2.27500       -2.03229        1.43946
H          1.10704       -2.14233       -1.06423
C          1.00817       -4.68893       -1.91577
C          3.70911        1.37617       -0.94648
C          3.40803        1.37637        0.44151
C          2.20635        0.82352        0.85103
C          1.29547        0.35439       -0.05934
C          1.52652        0.47628       -1.40464
C          2.70375        1.02164       -1.88492
O          5.02782        1.65433       -1.38886
C          4.32355        1.98467        1.51689
H          1.96500        0.76219        1.89817
H          0.75006        0.16853       -2.08325
C          2.81959        1.26155       -3.39968
C         -3.48396       -5.93855        0.59313
C         -2.97173       -4.71889        2.72947
C         -4.33551       -3.63502        0.92034
C          0.45510       -6.04620       -2.38379
C          1.08683       -3.77948       -3.16202
C          2.42200       -4.87858       -1.34257
C         -0.18608       -6.69939        0.87933
H         -3.53711       -5.86856       -0.49276
H         -2.73172       -6.68313        0.84276
H         -4.44331       -6.30430        0.95837
H         -3.87616       -5.12227        3.18414
H         -2.14821       -5.38839        2.97035
H         -2.76332       -3.75541        3.19376
H         -4.42409       -3.44347       -0.14866
H         -5.26945       -4.08162        1.26058
H         -4.23189       -2.67705        1.42693
H          0.46365       -6.77470       -1.57643
H         -0.57284       -5.94310       -2.72964
H          1.05036       -6.45276       -3.20105
H          0.08893       -3.55087       -3.53517
H          1.58755       -2.83879       -2.94188
H          1.64416       -4.26366       -3.96349
H          2.40935       -5.53039       -0.47116
H          3.08597       -5.32247       -2.08392
H          2.84984       -3.92386       -1.03796
H          0.85313       -6.38911        0.78388
H         -0.56077       -6.37748        1.84958
H         -0.24566       -7.78591        0.81257
C          5.83024        0.48907       -1.47613
C          4.96801        0.85431        2.33542
C          5.42484        2.87351        0.91365
C          3.48644        2.88039        2.45710
C          1.53615        1.95793       -3.90533
C          4.00103        2.17900       -3.75877
C          2.97981       -0.08644       -4.12058
H          4.20765        0.23404        2.80904
H          5.57595        0.21011        1.70262
H          5.60875        1.25730        3.11932
H          6.00197        3.36865        1.69423
H          6.11744        2.28872        0.31276
H          4.99135        3.64024        0.27242
H          4.12249        3.37220        3.19257
H          2.97037        3.65424        1.88988
H          2.73922        2.30916        3.00540
H          0.65845        1.32403       -3.79152
H          1.35739        2.88128       -3.35516
H          1.62036        2.20754       -4.96258
H          4.95172        1.70820       -3.51965
H          4.00744        2.41360       -4.82293
H          3.94287        3.11494       -3.20418
H          3.86926       -0.61211       -3.77746
H          3.06646        0.05553       -5.19747
H          2.11974       -0.72878       -3.93675
H          5.91975        0.02413       -0.49535
H          5.37834       -0.22438       -2.16394
H          6.82190        0.76134       -1.83806
