171
-217.83488060
P         -1.44523        0.23467       -0.37575
P          1.67736       -0.71148        0.36379
C         -0.42862        1.04469       -1.63055
C          1.03501       -1.72223       -0.99203
C          0.43443        0.25772       -2.38258
C          1.26261        0.86749       -3.34401
C          1.16229        2.23427       -3.54646
C          0.28955        2.99953       -2.80154
C         -0.49921        2.40085       -1.83895
C          1.04797       -3.07616       -0.75243
C          0.51528       -3.95304       -1.67736
C         -0.05113       -3.46040       -2.83328
C         -0.08833       -2.09986       -3.08778
C          0.47733       -1.20863       -2.15667
Cl         0.66280       -1.07545        3.44319
Cl        -2.31588       -1.53327        2.32959
C         -0.75152       -1.61747       -4.33034
C          2.22614        0.05809       -4.14059
H          0.22987        4.06312       -2.96486
H         -1.15648        3.00038       -1.23410
H          1.46922       -3.44455        0.17145
H          0.53244       -5.01411       -1.48930
H          1.77961        2.70043       -4.29547
H         -0.48489       -4.13649       -3.55082
C         -4.33930       -2.51801       -2.51829
C         -3.72929       -2.97668       -1.35664
C         -2.85043       -2.12359       -0.70530
C         -2.58332       -0.87572       -1.20645
C         -3.18321       -0.44331       -2.36383
C         -4.08019       -1.25835       -3.04481
H         -5.04907       -3.14688       -3.02136
H         -2.39040       -2.42618        0.21784
H         -2.93449        0.53371       -2.73997
C         -4.11432        3.32410        1.66226
C         -3.38658        2.45644        2.46711
C         -2.55919        1.53317        1.84429
C         -2.47311        1.46168        0.47389
C         -3.23302        2.30446       -0.30041
C         -4.05162        3.26684        0.27547
H         -4.75448        4.05012        2.12494
H         -2.00581        0.84065        2.44993
H         -3.19416        2.21163       -1.37204
C          5.57464       -2.64296        1.64107
C          4.69267       -2.23199        2.63339
C          3.49190       -1.65822        2.23810
C          3.19410       -1.50696        0.90832
C          4.07579       -1.92181       -0.05949
C          5.28877       -2.50140        0.28815
H          6.50607       -3.08701        1.93806
H          2.76576       -1.33967        2.96239
H          3.81136       -1.79670       -1.09677
C          2.85264        3.63045       -0.22167
C          3.62693        2.62681       -0.78944
C          3.21006        1.31417       -0.61541
C          2.07387        1.02517        0.09954
C          1.32894        2.03133        0.67086
C          1.70074        3.36095        0.50692
H          3.16019        4.65345       -0.32881
H          3.79481        0.50506       -1.01775
H          0.45343        1.77493        1.23923
Pd        -0.37497       -0.79642        1.47542
C         -4.61930       -4.19252        0.64491
C         -4.00667       -4.36235       -0.75783
C         -2.68328       -5.14286       -0.65314
C         -4.98487       -5.17483       -1.62731
H         -4.84318       -5.16025        1.09316
H         -3.93898       -3.66530        1.31268
H         -5.54551       -3.62070        0.59353
H         -2.22664       -5.25701       -1.63587
H         -1.96985       -4.62891       -0.00998
H         -2.84787       -6.13756       -0.23957
H         -5.94993       -4.67450       -1.70499
H         -4.58780       -5.32021       -2.63185
H         -5.15903       -6.16021       -1.19524
C         -4.74903       -1.83246       -5.41005
C         -4.82932       -0.77207       -4.29454
C         -4.23150        0.54132       -4.83812
C         -6.30198       -0.52709       -3.92153
H         -5.25324       -1.48477       -6.31162
H         -3.71295       -2.04673       -5.66903
H         -5.22133       -2.76687       -5.11067
H         -4.74110        0.84933       -5.75100
H         -4.33627        1.35206       -4.11788
H         -3.17392        0.42249       -5.07247
H         -6.77243       -1.44261       -3.56400
H         -6.37986        0.21895       -3.13078
H         -6.86942       -0.17016       -4.78083
C         -4.08950        1.06763        4.42601
C         -3.51641        2.43201        3.99803
C         -4.45523        3.54154        4.50874
C         -2.13319        2.63157        4.64479
H         -4.21632        1.01832        5.50720
H         -5.06071        0.89577        3.96270
H         -3.43061        0.25213        4.12997
H         -4.08751        4.52731        4.22421
H         -5.46217        3.41863        4.11043
H         -4.52682        3.51687        5.59606
H         -2.20436        2.59578        5.73166
H         -1.43215        1.85779        4.33424
H         -1.71521        3.59926        4.37034
C         -3.87560        4.97680       -1.54845
C         -4.85081        4.20892       -0.63551
C         -5.66693        5.23279        0.17632
C         -5.82143        3.37792       -1.49522
H         -3.15564        5.54024       -0.95497
H         -3.31864        4.29898       -2.19428
H         -4.41047        5.67914       -2.18747
H         -5.01648        5.84750        0.79838
H         -6.21756        5.90059       -0.48616
H         -6.39300        4.73546        0.81912
H         -6.50595        2.81136       -0.86425
H         -6.41425        4.01982       -2.14658
H         -5.28474        2.66917       -2.12445
C          6.35345       -1.64582        4.41889
C          5.05959       -2.42211        4.11224
C          5.27192       -3.92066        4.39494
C          3.94700       -1.90343        5.04490
H          7.18684       -2.01201        3.82052
H          6.22607       -0.58543        4.20170
H          6.62830       -1.74492        5.46887
H          5.51321       -4.08935        5.44428
H          4.37096       -4.48721        4.16029
H          6.08714       -4.32556        3.79649
H          3.01170       -2.43620        4.87468
H          4.22094       -2.04439        6.09028
H          3.77022       -0.83919        4.89100
C          7.52962       -3.58600       -0.24553
C          6.24928       -2.95158       -0.82143
C          6.64780       -1.73143       -1.67271
C          5.54361       -3.99392       -1.70931
H          7.29565       -4.46391        0.35641
H          8.19747       -3.90355       -1.04625
H          8.07470       -2.87523        0.37535
H          7.13791       -0.97705       -1.05776
H          7.33645       -2.01800       -2.46730
H          5.77663       -1.27105       -2.13737
H          6.20794       -4.34989       -2.49654
H          5.22946       -4.85357       -1.11769
H          4.65790       -3.57496       -2.18567
C          5.19297        4.41982       -1.69247
C          4.94988        2.90870       -1.51595
C          4.92680        2.25758       -2.91040
C          6.10513        2.31480       -0.68932
H          5.27606        4.92082       -0.72826
H          6.11984        4.60111       -2.23659
H          4.38229        4.88267       -2.25512
H          4.80497        1.17754       -2.84310
H          4.10529        2.65545       -3.50458
H          5.85500        2.45282       -3.44720
H          5.98456        1.23961       -0.56217
H          7.06492        2.49020       -1.17486
H          6.13978        2.76483        0.30263
C          0.54142        5.55400        0.06643
C          0.92439        4.52287        1.14510
C          1.81196        5.19195        2.21000
C         -0.36783        4.03694        1.82189
H          1.42234        5.97283       -0.41791
H         -0.07876        5.09620       -0.70277
H         -0.02179        6.37956        0.50129
H          2.09992        4.47301        2.97684
H          2.72355        5.59310        1.76837
H          1.28617        6.01307        2.69695
H         -0.91146        4.86993        2.26734
H         -1.02867        3.56253        1.09891
H         -0.14786        3.32163        2.61315
H         -0.18754       -1.91459       -5.21567
H          2.69532       -0.70946       -3.52280
H         -0.84963       -0.53144       -4.33949
H         -1.75347       -2.03906       -4.41536
H          3.02008        0.67955       -4.55647
H          1.72572       -0.43799       -4.97271
