111
-148.55199702
P         -2.73281        1.78178       -0.27514
P          0.18873        0.63475        0.14573
C         -1.78799        2.22758        1.21170
C         -0.49455        1.77603        1.36004
C         -3.92575        3.13653       -0.70110
C         -3.75333        3.62178       -2.12318
C         -2.35676        3.01021        2.19707
H         -3.37561        3.34452        2.09201
C         -1.62309        3.34644        3.32175
H         -2.06754        3.95824        4.08975
C         -0.32431        2.89722        3.46292
H          0.24586        3.15631        4.33984
C          0.23970        2.10359        2.48076
H          1.24498        1.72691        2.58453
Pd        -1.15539        0.90038       -1.73024
Cl        -2.70110        0.99094       -3.34622
Cl         0.46719       -0.05348       -2.95313
C         -5.29848        2.48713       -0.42456
C         -3.90566        0.37536       -0.00588
H         -4.42032        4.45790       -2.34603
H         -2.72741        3.94618       -2.31156
H         -3.98309        2.82477       -2.83103
H         -6.04474        2.89714       -1.12060
H         -5.64876        2.76477        0.58046
H         -3.55129       -0.46035       -0.62518
C         -5.23987        0.93725       -0.53731
C         -3.94473       -0.02571        1.45260
H         -3.72906        3.95971       -0.00156
H         -6.07659        0.47616        0.00769
H         -5.37322        0.64529       -1.58953
H         -4.27240        0.81038        2.07319
H         -4.63371       -0.85644        1.62289
H         -2.95719       -0.32877        1.80567
C         -1.30396       -3.51423        1.28284
C         -0.96586       -3.23154       -0.06497
C         -0.49678       -1.96638       -0.36840
C         -0.31683       -1.02260        0.60728
C         -0.53319       -1.32713        1.92536
C         -0.98275       -2.58142        2.30267
O         -2.00363       -4.70765        1.60372
C         -1.15981       -4.24520       -1.20227
H         -0.27854       -1.68770       -1.38413
H         -0.36638       -0.55930        2.66045
C         -1.14765       -2.89455        3.79777
C          4.73116        0.88056       -0.04907
C          3.95311        1.53877       -1.03605
C          2.57282        1.47530       -0.93536
C          1.97134        0.72618        0.04107
C          2.71894       -0.00070        0.93083
C          4.10298        0.02658        0.89277
O          6.13316        1.09926        0.01566
C          4.58278        2.31752       -2.20193
H          1.94347        2.00500       -1.62941
H          2.19999       -0.59668        1.66175
C          4.89622       -0.84749        1.87690
C         -2.56940       -4.07768       -1.79046
C         -0.12582       -4.00797       -2.32678
C         -0.95875       -5.68702       -0.70262
C         -2.54567       -2.45643        4.26013
C         -0.94172       -4.39429        4.07780
C         -0.09028       -2.13344        4.62985
C         -3.41883       -4.56751        1.58465
H         -3.33405       -4.25421       -1.03768
H         -2.70890       -3.06686       -2.17349
H         -2.73607       -4.77547       -2.61056
H          0.88662       -3.98771       -1.92451
H         -0.17478       -4.80220       -3.07124
H         -0.30572       -3.06987       -2.84970
H          0.02295       -5.80055       -0.24399
H         -1.70635       -5.95785        0.03873
H         -1.03484       -6.40025       -1.52297
H         -2.69325       -2.67525        5.31737
H         -2.68144       -1.38481        4.11672
H         -3.32477       -2.96709        3.69895
H          0.03088       -4.72252        3.71262
H         -0.99168       -4.60416        5.14595
H         -1.70215       -4.99767        3.58857
H         -0.26002       -1.05794        4.61349
H         -0.12109       -2.44598        5.67339
H          0.91300       -2.32795        4.25174
H         -3.84568       -5.26777        0.86678
H         -3.82355       -4.79976        2.56954
H         -3.69692       -3.54966        1.30817
C          6.51135        2.20154        0.83049
C          3.66202        2.27535       -3.44327
C          4.78332        3.78291       -1.78776
C          5.92726        1.69575       -2.62173
C          6.22375       -1.31611        1.25394
C          5.16599       -0.05035        3.16194
C          4.09726       -2.11906        2.24483
H          4.16102        2.70655       -4.31074
H          3.38966        1.24920       -3.68882
H          2.74654        2.84358       -3.28646
H          5.22091        4.36194       -2.60059
H          3.83155        4.24152       -1.52068
H          5.44184        3.86246       -0.92614
H          6.66170        1.76155       -1.82289
H          5.80071        0.64327       -2.87320
H          6.34041        2.20544       -3.49177
H          6.04294       -1.84345        0.31788
H          6.88057       -0.47610        1.04178
H          6.75609       -1.98921        1.92552
H          4.23017        0.25976        3.62648
H          5.71934       -0.64985        3.88436
H          5.74562        0.84609        2.95528
H          3.21548       -1.88363        2.83886
H          4.70719       -2.80176        2.83602
H          3.77595       -2.64840        1.34813
H          7.17086        1.85743        1.62702
H          7.05505        2.93077        0.23019
H          5.62969        2.67331        1.26615
