111
-148.55481808
P         -2.62742        2.12599        0.22802
P          0.05662        0.45749        0.47427
C         -1.82026        1.94599        1.84369
C         -0.62805        1.26062        1.93538
C         -3.42919        3.78529        0.04732
C         -2.62240        4.70372       -0.84430
C         -2.39289        2.48248        2.97936
H         -3.33627        2.99835        2.90858
C         -1.76130        2.34008        4.20293
H         -2.20759        2.75977        5.08968
C         -0.56220        1.65917        4.28987
H         -0.07176        1.54663        5.24275
C          0.00381        1.11251        3.15226
H          0.93045        0.56233        3.20434
Pd        -1.07139        1.38579       -1.31707
Cl        -2.51565        2.16396       -2.85100
Cl         0.50419        0.61621       -2.71669
C         -4.82894        3.42871       -0.48607
C         -4.09732        1.02319        0.00432
H         -2.51965        4.28284       -1.84510
H         -3.09945        5.68120       -0.94646
H         -1.61546        4.85650       -0.44875
H         -4.80451        3.45602       -1.58423
H         -5.56101        4.19428       -0.18695
H         -3.97786        0.55480       -0.98190
C         -5.27574        2.01504       -0.01419
C         -4.17028       -0.02664        1.09202
H         -3.50546        4.20530        1.05815
H         -5.69617        2.08338        0.99856
H         -6.09031        1.62968       -0.64609
H         -5.05233       -0.66089        0.97734
H         -3.28809       -0.67006        1.07935
H         -4.22154        0.43956        2.07770
C         -1.29784       -3.88841        0.26461
C         -0.96398       -3.18865       -0.92258
C         -0.54064       -1.87719       -0.80862
C         -0.51452       -1.24002        0.40332
C         -0.94084       -1.87710        1.53867
C         -1.37636       -3.19110        1.49777
O         -1.51453       -5.29154        0.22791
C         -1.02903       -3.82688       -2.31848
H         -0.21124       -1.32773       -1.67299
H         -0.92317       -1.33151        2.46538
C         -1.89556       -3.85024        2.78497
C          4.58919        0.67825        0.09941
C          3.90889       -0.53175       -0.18979
C          2.53037       -0.55044       -0.06915
C          1.84054        0.54382        0.38234
C          2.50132        1.68427        0.75673
C          3.88179        1.76896        0.66839
O          5.96762        0.81107       -0.21583
C          4.62740       -1.80234       -0.66995
H          1.97000       -1.42629       -0.34456
H          1.91814        2.51519        1.11463
C          4.58629        3.04326        1.16022
C         -1.38050       -2.76274       -3.38431
C          0.33973       -4.43357       -2.66287
C         -2.12391       -4.90663       -2.38705
C         -0.72693       -4.52734        3.51653
C         -2.52223       -2.79669        3.72674
C         -2.99428       -4.88196        2.47134
C         -0.33110       -6.06243        0.39456
H         -2.28114       -2.21674       -3.10474
H         -0.57406       -2.04388       -3.52029
H         -1.55862       -3.22899       -4.35292
H          1.11253       -3.66518       -2.66117
H          0.62758       -5.19361       -1.94020
H          0.32523       -4.89459       -3.65008
H         -3.09002       -4.49118       -2.10238
H         -2.21239       -5.31178       -3.39476
H         -1.90772       -5.73516       -1.71752
H         -1.06312       -4.99280        4.44270
H         -0.27009       -5.29797        2.90039
H          0.04551       -3.79981        3.76481
H         -3.28307       -2.21497        3.20735
H         -2.99617       -3.27692        4.58251
H         -1.77391       -2.11032        4.12021
H         -3.40876       -5.30378        3.38662
H         -3.80696       -4.41896        1.91254
H         -2.60647       -5.70509        1.87611
H          0.52646       -5.41101        0.56816
H         -0.45264       -6.73741        1.24166
H         -0.15526       -6.66360       -0.49724
C          6.21496        1.30088       -1.52785
C          6.04469       -1.89873       -0.07734
C          3.86233       -3.06695       -0.21433
C          4.69146       -1.79598       -2.20489
C          4.68138        4.05053        0.00437
C          3.79290        3.69263        2.31711
C          5.99120        2.72617        1.70445
H          6.52895       -2.83032       -0.36911
H          6.67423       -1.08058       -0.41774
H          6.00860       -1.86138        1.01090
H          2.90258       -3.16379       -0.71949
H          4.43343       -3.96706       -0.44066
H          3.68323       -3.04562        0.86033
H          3.68924       -1.75770       -2.63136
H          5.23942       -0.93182       -2.57283
H          5.18440       -2.69270       -2.57944
H          5.25418        3.64476       -0.82596
H          3.68932        4.30247       -0.36960
H          5.16465        4.97200        0.32808
H          2.84008        4.09545        1.97705
H          3.59714        2.96824        3.10735
H          4.35213        4.52026        2.75290
H          6.64133        2.33920        0.92378
H          5.93667        1.97835        2.49488
H          6.46369        3.61877        2.11373
H          6.80276        2.21692       -1.47104
H          6.78622        0.56439       -2.09262
H          5.27408        1.50286       -2.04142
