111
-148.55231245
P         -2.21033        2.20925        1.36858
P          0.12501        0.26555        0.47000
C         -1.11762        1.48880        2.61590
C         -0.13403        0.60796        2.22405
C         -2.42058        4.02791        1.61392
C         -2.13796        4.75865        0.31912
C         -1.28978        1.78279        3.95326
H         -2.05057        2.48650        4.24954
C         -0.48711        1.17199        4.90115
H         -0.62161        1.39878        5.94618
C          0.47727        0.26344        4.50959
H          1.09440       -0.22190        5.24769
C          0.65188       -0.02184        3.16726
H          1.39216       -0.73879        2.84771
Pd        -1.54237        1.41764       -0.68601
Cl        -3.42879        2.11940       -1.67857
Cl        -0.78910        0.50638       -2.60086
C         -3.88168        4.14942        2.09368
C         -3.97158        1.64957        1.52910
H         -1.11693        4.57708       -0.02587
H         -2.81521        4.41928       -0.46742
H         -2.27174        5.83759        0.42926
H         -4.29558        5.11532        1.76905
H         -3.91479        4.16738        3.19296
H         -4.20164        1.08820        0.61344
C         -4.75743        2.97605        1.57158
C         -4.17739        0.77339        2.74686
H         -1.71364        4.33395        2.39702
H         -5.65376        2.85258        2.19662
H         -5.12924        3.22084        0.56572
H         -5.20267        0.40023        2.80329
H         -3.50426       -0.08686        2.73833
H         -3.98295        1.33347        3.66258
C         -1.13238       -4.03705       -0.31074
C         -2.09411       -3.06447        0.06567
C         -1.65607       -1.77630        0.32531
C         -0.34467       -1.42630        0.13589
C          0.56718       -2.33335       -0.33563
C          0.19788       -3.64076       -0.60355
O         -1.49053       -5.41061       -0.35724
C         -3.59074       -3.38490        0.20205
H         -2.33824       -1.02275        0.67995
H          1.57987       -2.00463       -0.48883
C          1.24049       -4.60921       -1.18348
C          4.43506        0.97402       -0.87265
C          4.08784        1.17405        0.48731
C          2.77442        0.95702        0.86859
C          1.81152        0.62015       -0.04838
C          2.12640        0.54250       -1.38002
C          3.41692        0.75180       -1.83342
O          5.80033        0.96163       -1.26414
C          5.12042        1.57971        1.55088
H          2.48862        1.04499        1.90040
H          1.33376        0.32121       -2.07102
C          3.69450        0.71815       -3.34493
C         -3.89362       -3.79578        1.65066
C         -4.44374       -2.14463       -0.15049
C         -4.01024       -4.50505       -0.76715
C          2.26546       -3.84671       -2.05342
C          1.98772       -5.30049       -0.03336
C          0.57655       -5.65999       -2.09193
C         -1.32524       -6.09237        0.87963
H         -3.62698       -2.99637        2.34168
H         -4.95302       -4.01524        1.78085
H         -3.32923       -4.68089        1.93500
H         -5.50188       -2.40116       -0.19469
H         -4.33737       -1.35907        0.59496
H         -4.15621       -1.73850       -1.12002
H         -5.08388       -4.68469       -0.71779
H         -3.75728       -4.23855       -1.79280
H         -3.50943       -5.44104       -0.53300
H          2.89466       -3.18936       -1.45504
H          2.92837       -4.54074       -2.56959
H          1.75738       -3.24576       -2.80702
H          1.30498       -5.86892        0.59388
H          2.74410       -5.98578       -0.41511
H          2.48569       -4.56591        0.59913
H          1.32256       -6.30458       -2.55607
H         -0.10404       -6.29588       -1.53120
H          0.00576       -5.17615       -2.88381
H         -0.63428       -6.92492        0.74810
H         -0.93597       -5.41338        1.63933
H         -2.28407       -6.49334        1.20775
C          6.39906       -0.32797       -1.23409
C          5.74790        0.31526        2.15683
C          6.21559        2.47738        0.94657
C          4.44972        2.38896        2.68433
C          4.86461        1.64747       -3.71564
C          4.00648       -0.72306       -3.77434
C          2.46119        1.21163       -4.13589
H          6.25293       -0.27658        1.39718
H          6.47761        0.57087        2.92471
H          4.98349       -0.31344        2.61303
H          6.91181        2.81641        1.71327
H          6.79121        1.94733        0.19179
H          5.77536        3.35559        0.47550
H          5.19764        2.78796        3.36919
H          3.88539        3.22863        2.27946
H          3.77320        1.77290        3.27491
H          5.79416        1.31725       -3.25894
H          5.01858        1.67279       -4.79412
H          4.66894        2.66427       -3.37684
H          4.21369       -0.77614       -4.84281
H          4.87066       -1.11555       -3.24369
H          3.16178       -1.37730       -3.56272
H          1.62728        0.51563       -4.06015
H          2.69604        1.31417       -5.19500
H          2.12985        2.18330       -3.77080
H          7.25827       -0.31563       -0.56365
H          5.68069       -1.07367       -0.89104
H          6.74954       -0.59261       -2.23153
