171
-217.84765422
P         -1.62657        0.41263       -0.25817
P          1.62184       -0.39021       -0.31311
C         -0.89755        1.36235       -1.59636
C          0.84870       -1.35765       -1.61291
C         -0.12169        0.74148       -2.56922
C          0.49898        1.53952       -3.54922
C          0.29779        2.90986       -3.53443
C         -0.49116        3.50326       -2.57163
C         -1.08196        2.72330       -1.59725
C          1.02636       -2.71942       -1.61231
C          0.40968       -3.50017       -2.56975
C         -0.39258       -2.90636       -3.52126
C         -0.58551       -1.53477       -3.53845
C          0.05482       -0.73717       -2.57075
Cl         1.65628        0.40147        2.85089
Cl        -1.47839       -0.24913        2.97832
C         -1.44765       -0.92803       -4.58947
C          1.36492        0.94043       -4.60159
H         -0.64328        4.57017       -2.57534
H         -1.68975        3.17813       -0.83169
H          1.65288       -3.17463       -0.86270
H          0.55702       -4.56772       -2.57303
H          0.77272        3.51454       -4.28859
H         -0.88146       -3.51147       -4.26607
C         -3.86386       -3.29539       -1.55510
C         -4.15970       -2.09005       -2.17897
C         -3.43826       -0.96632       -1.79198
C         -2.47901       -1.06081       -0.81320
C         -2.20398       -2.25861       -0.20234
C         -2.88625       -3.40975       -0.57539
H         -4.42760       -4.16915       -1.82533
H         -3.62690       -0.00464       -2.23811
H         -1.46342       -2.28146        0.57808
C         -4.47336        2.90468        2.24665
C         -3.11376        3.18033        2.31636
C         -2.25620        2.42823        1.52272
C         -2.74840        1.43394        0.71310
C         -4.09542        1.17179        0.66394
C         -4.99015        1.90990        1.42738
H         -5.14870        3.47131        2.86107
H         -1.19323        2.59468        1.55014
H         -4.44345        0.37251        0.03499
C          4.42841       -2.86712        2.25487
C          3.07081       -3.16372        2.27400
C          2.23331       -2.42231        1.45077
C          2.73449       -1.40815        0.67278
C          4.07607       -1.11705        0.68240
C          4.95517       -1.85095        1.46796
H          5.09872       -3.43113        2.87556
H          1.17580       -2.62306        1.42911
H          4.43152       -0.30003        0.08090
C          3.92515        3.19695       -1.81731
C          2.93805        3.39077       -0.85958
C          2.23642        2.27673       -0.41597
C          2.50233        1.03673       -0.94065
C          3.46815        0.86390       -1.90202
C          4.20856        1.94905       -2.35729
H          4.50619        4.04202       -2.13736
H          1.48340        2.36333        0.34799
H          3.64619       -0.12826       -2.28091
Pd         0.03045        0.04201        1.33897
C         -5.39672       -0.63032       -3.85745
C         -5.30111       -2.02285       -3.20405
C         -6.63186       -2.31980       -2.48891
C         -5.07078       -3.06820       -4.31233
H         -4.46746       -0.36775       -4.36169
H         -6.19432       -0.60562       -4.59983
H         -5.61568        0.13785       -3.11616
H         -6.62522       -3.31303       -2.04113
H         -6.81193       -1.59702       -1.69397
H         -7.46898       -2.27151       -3.18510
H         -5.85444       -3.01249       -5.06775
H         -4.11495       -2.90640       -4.80815
H         -5.07096       -4.08085       -3.91137
C         -3.86467       -5.18149        0.89802
C         -2.62212       -4.76609        0.09114
C         -1.41453       -4.69511        1.04402
C         -2.32434       -5.82362       -0.98838
H         -4.09514       -4.43639        1.65930
H         -4.73724       -5.28141        0.25324
H         -3.70478       -6.13704        1.39715
H         -1.20286       -5.67258        1.47714
H         -0.52401       -4.36446        0.51060
H         -1.60323       -4.00525        1.86607
H         -1.47036       -5.52397       -1.59447
H         -2.09450       -6.78811       -0.53587
H         -3.17444       -5.96454       -1.65448
C         -1.07304        4.41585        3.19747
C         -2.60148        4.25059        3.29005
C         -2.95916        3.83386        4.72832
C         -3.25813        5.60304        2.95789
H         -0.72218        5.18027        3.89054
H         -0.56038        3.48633        3.44470
H         -0.77929        4.71963        2.19398
H         -2.58952        4.56234        5.44969
H         -4.03735        3.75060        4.85969
H         -2.51759        2.86651        4.96738
H         -2.89282        6.38691        3.62116
H         -3.03455        5.89722        1.93252
H         -4.34119        5.55579        3.06414
C         -7.24765        2.91782        0.99811
C         -6.50041        1.63559        1.40864
C         -6.95152        1.19639        2.81340
C         -6.86183        0.52043        0.40751
H         -8.32292        2.74539        0.95439
H         -7.06907        3.72564        1.70672
H         -6.91975        3.25583        0.01523
H         -6.76084        1.97480        3.55129
H         -8.01847        0.97471        2.82951
H         -6.41509        0.30078        3.12631
H         -6.37861       -0.41914        0.67511
H         -7.93745        0.34501        0.39453
H         -6.55892        0.79038       -0.60398
C          3.49512       -4.76269        4.20793
C          2.48387       -4.27976        3.14967
C          2.10151       -5.46754        2.25085
C          1.23460       -3.75724        3.88807
H          3.04310       -5.50765        4.86271
H          4.36558       -5.22428        3.74262
H          3.83335       -3.93409        4.82994
H          1.64831       -6.26998        2.83261
H          1.39202       -5.16340        1.48332
H          2.98107       -5.86846        1.74742
H          0.83495       -4.51431        4.56238
H          1.47850       -2.87385        4.47777
H          0.44105       -3.48529        3.19452
C          6.84022       -0.43420        0.51269
C          6.45972       -1.54827        1.50792
C          7.24877       -2.81786        1.13731
C          6.84395       -1.09101        2.92647
H          6.33470        0.50029        0.75567
H          7.91297       -0.24304        0.53646
H          6.57692       -0.71622       -0.50656
H          7.06334       -3.62318        1.84691
H          6.96407       -3.17183        0.14661
H          8.32091       -2.62209        1.13036
H          6.27868       -0.20333        3.20983
H          6.63604       -1.86782        3.66144
H          7.90513       -0.84976        2.98535
C          3.91555        5.23016        0.52629
C          2.68715        4.79344       -0.29094
C          1.45010        4.81510        0.62628
C          2.45002        5.78623       -1.44490
H          4.80964        5.26368       -0.09551
H          3.76733        6.22090        0.95551
H          4.10203        4.53214        1.34230
H          1.59567        4.17469        1.49591
H          1.25553        5.82397        0.98993
H          0.56324        4.47709        0.09085
H          2.22163        6.78080       -1.06217
H          3.32707        5.87211       -2.08486
H          1.61427        5.46348       -2.06447
C          6.68737        2.10474       -2.65677
C          5.35629        1.79635       -3.36614
C          5.16164        2.77869       -4.53733
C          5.42221        0.36612       -3.93637
H          6.70044        3.12353       -2.27075
H          6.84275        1.42839       -1.81713
H          7.52931        1.99408       -3.33990
H          4.21304        2.60163       -5.04169
H          5.17091        3.81308       -4.19661
H          5.95765        2.66716       -5.27342
H          4.48777        0.09649       -4.42786
H          6.22098        0.27986       -4.67287
H          5.62164       -0.36212       -3.15056
H         -2.31777       -1.55356       -4.78746
H          1.65256       -0.08126       -4.35023
H         -0.89923       -0.81460       -5.52551
H         -1.81029        0.05568       -4.28825
H          2.28100        1.51835       -4.72164
H          0.85259        0.92147       -5.56448
