87
-129.17956151
P         -1.77627       -0.38905        0.13895
P          1.56076        0.17660       -0.14452
C         -1.43453        0.90352       -1.08419
C          1.21967       -0.84514       -1.58132
C         -0.54724        0.80571       -2.15412
C         -0.30336        1.95015       -2.93753
C         -0.97258        3.12740       -2.65081
C         -1.85392        3.20452       -1.59507
C         -2.07315        2.09048       -0.80772
C          1.98117       -1.95606       -1.84915
C          1.72531       -2.71104       -2.97703
C          0.70443       -2.34497       -3.83014
C         -0.07637       -1.22913       -3.57575
C          0.19555       -0.45139       -2.43254
Cl         1.42313        1.56793        2.73767
Cl        -1.37440       -0.02979        3.31971
H         -2.35824        4.13103       -1.37479
H         -2.73854        2.14526        0.04138
H          2.78390       -2.22585       -1.18347
H          2.32027       -3.58436       -3.18835
H         -0.78297        3.99650       -3.25777
H          0.50222       -2.93251       -4.70954
C         -0.61259       -4.70139       -0.71599
C         -1.36640       -4.01157       -1.65494
C         -1.71886       -2.69363       -1.38578
C         -1.31866       -2.09025       -0.21700
C         -0.60731       -2.79582        0.72588
C         -0.24060       -4.10329        0.47144
H         -0.32924       -5.71998       -0.91984
C         -1.77702       -4.67258       -2.92362
H         -2.29956       -2.13440       -2.09937
H         -0.37637       -2.33201        1.67173
H          0.32230       -4.65871        1.20381
C         -6.26482       -0.31945        0.89665
C         -5.77368       -0.39381       -0.39198
C         -4.40819       -0.41511       -0.60986
C         -3.54660       -0.35850        0.46125
C         -4.03579       -0.28443        1.74317
C         -5.40314       -0.27083        1.98343
H         -7.32745       -0.29647        1.06896
H         -6.45290       -0.43298       -1.22777
H         -4.00921       -0.46544       -1.61087
H         -3.34615       -0.22983        2.56609
C         -5.92834       -0.16192        3.37183
C          4.78875       -1.73149        2.44726
C          3.66483       -2.45792        2.10755
C          2.68608       -1.88419        1.31927
C          2.84066       -0.59493        0.86718
C          3.95766        0.13162        1.20841
C          4.94693       -0.42335        2.01125
H          5.55388       -2.17634        3.06043
H          3.54846       -3.47015        2.45873
H          1.80300       -2.43817        1.05039
H          4.05986        1.14512        0.85941
C          6.16134        0.36119        2.36420
C          2.97787        4.23173       -1.62591
C          3.57822        3.07634       -2.08661
C          3.14997        1.84548       -1.62469
C          2.13397        1.78364       -0.70006
C          1.53904        2.93234       -0.23375
C          1.94465        4.17630       -0.70053
H          3.30908        5.19135       -1.98459
H          4.37581        3.13250       -2.80915
H          3.59584        0.93147       -1.98491
H          0.74868        2.86653        0.49449
C          1.30224        5.41728       -0.18948
Pd        -0.03922        0.33711        1.56151
C          0.67457        1.93217       -4.06130
C         -1.17522       -0.86961       -4.51368
H          0.16167        1.90494       -5.02339
H          1.30383        2.82314       -4.04133
H          1.33475        1.06618       -4.00471
H         -0.77828       -0.41113       -5.42016
H         -1.74303       -1.75371       -4.80683
H         -1.87360       -0.16664       -4.05784
H         -2.39128       -4.01117       -3.53606
H         -0.90415       -4.95817       -3.51236
H         -2.35735       -5.57404       -2.72188
H         -6.87271       -0.69752        3.47864
H         -5.22529       -0.58285        4.09209
H         -6.09951        0.88148        3.64007
H          5.92405        1.42021        2.47586
H          6.59293        0.01821        3.30555
H          6.92309        0.26622        1.58911
H          1.77756        5.74609        0.73564
H          1.37660        6.22851       -0.91505
H          0.24339        5.25299        0.01618
