59
-75.79912628
Cl         1.45957        0.60341        2.47482
P          1.57577       -0.00174       -0.77862
P         -1.58530       -0.15310       -0.81603
C          0.63731        0.34167       -2.33242
H          0.38450        1.40428       -2.35624
H          1.28751        0.13693       -3.18856
C         -0.60803       -0.50068       -2.34589
H         -0.35570       -1.56345       -2.36061
H         -1.23749       -0.30328       -3.21922
C          2.40330       -1.64702       -0.91366
H          1.87400       -2.23132       -1.67623
C          3.07023        1.06490       -0.52025
H          3.03756        1.37058        0.53350
C         -2.86912       -1.42723       -0.42156
H         -2.86815       -1.52691        0.67093
C         -2.67426        1.32129       -1.07956
H         -2.59710        1.57790       -2.14306
C          3.81772       -1.25119       -1.38094
H          4.53647       -2.04278       -1.12457
H          3.83524       -1.17988       -2.47908
C          4.26037        0.10811       -0.76948
H          4.99232        0.59988       -1.42573
H          4.79587       -0.07285        0.17397
C         -4.16927       -0.75109       -0.88997
H         -4.34735       -1.01595       -1.94151
H         -5.03103       -1.15072       -0.33354
C         -4.08319        0.79391       -0.74863
H         -4.33154        1.07619        0.28362
H         -4.83745        1.28833       -1.37924
C          2.36485       -2.36601        0.43137
H          1.33441       -2.36483        0.81223
H          2.93640       -1.77687        1.16134
C          3.06314        2.30606       -1.40553
H          4.06457        2.75883       -1.40182
H          2.88951        1.99920       -2.44506
C         -2.58832       -2.78019       -1.06416
H         -3.47535       -3.41983       -0.95578
H         -2.46478       -2.64142       -2.14596
C         -2.22614        2.49518       -0.21819
H         -2.29476        2.20457        0.83855
H         -1.15889        2.68388       -0.39429
C          2.88838       -3.79395        0.37085
H          2.32084       -4.39038       -0.34610
H          2.82113       -4.29440        1.33956
H          3.93383       -3.82659        0.06065
C          2.03395        3.33725       -0.96644
H          1.03114        2.91188       -0.93733
H          2.00671        4.20182       -1.63352
H          2.24867        3.70425        0.03911
C         -1.37202       -3.47456       -0.47003
H         -1.50671       -3.66119        0.59710
H         -0.47565       -2.86278       -0.57318
H         -1.17100       -4.43515       -0.94969
C         -3.02944        3.76213       -0.47053
H         -2.68928        4.59317        0.15155
H         -2.95028        4.07740       -1.51268
H         -4.08938        3.60845       -0.26047
Cl        -1.75036        0.14900        2.31637
Pd        -0.02733        0.11545        0.87218
