115
-277.94423645
P         -1.81027        0.23998        0.15793
P          1.76480       -0.23828        0.34920
C         -2.25987        1.95383       -0.15691
C         -3.56210        2.33936        0.08181
H         -4.31186        1.59460        0.30006
C         -3.86586        3.68227        0.18080
H         -4.84763        3.99791        0.49519
C         -2.87060        4.63486        0.02569
C         -1.60008        4.23441       -0.35344
H         -0.83560        4.98780       -0.46385
C         -1.29225        2.89268       -0.44288
H         -0.28809        2.58576       -0.68351
C         -3.09650       -0.81024       -0.56064
C         -3.30561       -2.06504       -0.03512
H         -2.71465       -2.40323        0.79887
C         -4.28946       -2.87942       -0.55752
H         -4.48167       -3.85763       -0.14582
C         -5.06463       -2.44561       -1.61394
C         -4.85179       -1.18330       -2.13435
H         -5.46883       -0.84659       -2.95225
C         -3.87109       -0.36866       -1.60858
H         -3.70146        0.61130       -2.02530
C         -1.64973       -0.13485        1.93648
C         -0.94942       -1.31231        2.12321
H         -0.52178       -1.80545        1.26684
C         -0.62318       -1.77104        3.39786
C         -1.20368       -1.12691        4.48381
H         -0.99712       -1.48181        5.47963
C         -1.89890        0.05270        4.30758
H         -2.22719        0.60491        5.17189
C         -2.03279        0.63359        3.04631
C          1.45312        0.31040        2.06121
C          0.74318        1.49656        2.06797
H          0.39262        1.89916        1.13302
C          0.30670        2.07755        3.25669
C          0.78534        1.54679        4.44844
H          0.49242        1.99747        5.38191
C          1.48873        0.35885        4.45209
H          1.73635       -0.10378        5.39252
C          1.73242       -0.34299        3.27124
C         -2.23294        2.13397        3.00056
H         -3.00090        2.42005        3.72811
H         -2.66189        2.41090        2.04196
C         -0.91534        2.95482        3.25144
H         -0.79131        3.74253        2.50032
H         -0.97523        3.49151        4.20479
C          0.59009       -2.63942        3.59052
H          0.53561       -3.49413        2.90753
H          0.55628       -3.08541        4.59078
C          1.92935       -1.83966        3.39218
H          2.62018       -2.04959        4.21665
H          2.45113       -2.20749        2.51347
C          2.28151       -1.95966        0.26370
C          1.36543       -2.95450       -0.00135
C          3.56486       -2.27444        0.65814
C          1.69387       -4.26806        0.26242
C          3.88828       -3.58840        0.93160
C          2.93255       -4.58376        0.79580
C          3.08980        0.76109       -0.37213
C          3.93921        0.23359       -1.31727
C          3.25547        2.06129        0.04815
C          4.95096        1.00700       -1.84620
H          3.80707       -0.78380       -1.64907
C          4.26997        2.83504       -0.47739
H          2.60665        2.46819        0.80475
C          5.12025        2.31432       -1.43189
H          5.62672        0.60264       -2.58303
H          4.42824        3.84899       -0.14540
Pd         0.04486       -0.10454       -1.25059
Cl        -1.42532        0.24571       -2.91119
Cl         1.63165       -0.71169       -2.71804
H          4.84379       -3.83616        1.36516
H          4.27436       -1.48637        0.85813
H          0.95939       -5.05301        0.16951
H          0.38031       -2.70787       -0.36070
C         -4.49911        6.52206        0.49259
C         -3.03116        6.01815        0.60453
C         -2.53861        5.91734        2.08323
F         -4.54776        7.81539        0.84799
F         -4.88261        6.37874       -0.78465
F         -5.28940        5.78740        1.28747
F         -2.24451        6.88393       -0.03917
F         -1.22665        5.65107        2.04934
F         -2.76851        7.07214        2.72231
F         -3.16994        4.89989        2.68577
C         -7.51502       -2.83891       -1.48102
C         -6.18224       -3.32113       -2.12160
C         -6.22899       -3.30052       -3.67796
F         -7.70338       -1.54443       -1.77736
F         -8.53005       -3.58457       -1.94279
F         -7.39701       -2.98627       -0.15276
F         -5.98114       -4.58565       -1.74044
F         -4.99711       -3.58979       -4.12345
F         -7.10358       -4.22452       -4.10511
F         -6.59007       -2.08096       -4.10091
C          7.55338        2.74467       -1.16431
C          6.26732        3.15123       -1.93890
C          6.42439        2.98715       -3.47946
F          7.34125        3.01366        0.13282
F          7.76721        1.43026       -1.32437
F          8.59564        3.45469       -1.62160
F          6.03425        4.44330       -1.69210
F          5.22591        3.22043       -4.03524
F          7.32304        3.87711       -3.92839
F          6.81982        1.73769       -3.76064
C          4.54842       -6.35615        1.62042
C          3.06656       -5.88834        1.54045
C          2.43496       -5.63834        2.94699
F          5.24631       -5.51203        2.39275
F          4.58999       -7.59867        2.12617
F          5.04607       -6.34698        0.37493
F          2.36151       -6.84424        0.93059
F          2.99012       -4.54439        3.48732
F          1.12779       -5.41256        2.76292
F          2.62230       -6.70931        3.72976
