111
-148.55341535
P         -2.48258        2.15166        0.53240
P          0.10783        0.32454        0.47446
C         -1.41101        2.06661        1.98706
C         -0.29593        1.25765        1.96474
C         -2.74943        3.89884       -0.00952
C         -1.85942        4.25229       -1.18190
C         -1.70572        2.80842        3.11276
H         -2.56911        3.45386        3.11370
C         -0.88844        2.72290        4.22648
H         -1.11860        3.29901        5.10781
C          0.22096        1.89967        4.20881
H          0.85692        1.83128        5.07605
C          0.51921        1.16709        3.07367
H          1.38524        0.52583        3.04539
Pd        -1.52006        0.83457       -1.10331
Cl        -3.31632        1.34724       -2.34521
Cl        -0.43151       -0.46035       -2.57150
C         -4.25739        3.93169       -0.31538
C         -4.23688        1.64383        0.85435
H         -2.01587        5.28405       -1.50519
H         -0.80309        4.13168       -0.92917
H         -2.06806        3.60504       -2.03566
H         -4.40732        3.67354       -1.37288
H         -4.64991        4.95379       -0.20185
H         -4.46155        0.87800        0.10009
C         -5.04188        2.92996        0.57792
C         -4.42360        1.09516        2.25479
H         -2.52007        4.53041        0.85871
H         -5.28109        3.40974        1.53669
H         -6.01357        2.68152        0.12528
H         -4.25064        1.87050        3.00231
H         -5.43799        0.71816        2.40452
H         -3.72390        0.28482        2.46626
C         -0.84667       -4.10178        0.94996
C         -1.84906       -3.12362        1.17791
C         -1.49500       -1.78806        1.07034
C         -0.23904       -1.42220        0.65811
C          0.68256       -2.36702        0.28764
C          0.39852       -3.71819        0.38896
O         -1.05965       -5.45250        1.33231
C         -3.30251       -3.47932        1.52726
H         -2.20339       -1.00999        1.29670
H          1.63119       -2.03382       -0.09325
C          1.43252       -4.74728       -0.09285
C          4.32341        1.29108       -0.97869
C          3.19556        1.71113       -1.73204
C          1.93421        1.42300       -1.23837
C          1.76855        0.67248       -0.10356
C          2.85490        0.15912        0.55765
C          4.14590        0.41558        0.12509
O          5.61030        1.80613       -1.28065
C          3.28616        2.43998       -3.08368
H          1.05800        1.78389       -1.74935
H          2.68626       -0.45054        1.42871
C          5.30563       -0.27176        0.86663
C         -3.50659       -3.33464        3.04271
C         -4.27060       -2.52860        0.78814
C         -3.66490       -4.90813        1.08252
C          2.27126       -4.17028       -1.25532
C          2.37284       -5.10963        1.06603
C          0.74001       -6.01566       -0.62434
C         -0.69177       -5.72209        2.67871
H         -3.29812       -2.31502        3.36573
H         -4.53153       -3.57489        3.32403
H         -2.84073       -3.99835        3.59129
H         -4.07736       -2.53902       -0.28423
H         -5.30616       -2.82861        0.94630
H         -4.17680       -1.50331        1.13689
H         -4.71910       -5.11886        1.26073
H         -3.46709       -5.04025        0.01933
H         -3.08574       -5.65195        1.62335
H          2.91902       -4.93520       -1.68286
H          1.62553       -3.79560       -2.04913
H          2.91288       -3.35583       -0.92445
H          2.86860       -4.22025        1.45379
H          1.82573       -5.57048        1.88550
H          3.14140       -5.81016        0.74038
H          1.46708       -6.71926       -1.02897
H          0.19133       -6.52596        0.16388
H          0.03381       -5.76439       -1.41499
H         -1.58449       -5.86804        3.28607
H         -0.09467       -6.63354        2.71454
H         -0.11343       -4.89224        3.08672
C          5.88870        3.02077       -0.60421
C          2.32375        1.77021       -4.09046
C          2.87927        3.91136       -2.90096
C          4.69634        2.36753       -3.69446
C          6.62464       -0.21128        0.07652
C          5.49828        0.39385        2.23913
C          4.97480       -1.76648        1.07175
H          2.53574        0.70474       -4.17385
H          1.28249        1.88178       -3.79323
H          2.42700        2.21271       -5.08081
H          3.54548        4.42048       -2.20707
H          2.91204        4.44500       -3.85047
H          1.86628        3.98957       -2.50725
H          4.71503        2.80349       -4.69302
H          5.41787        2.90784       -3.08626
H          5.03006        1.33309       -3.76830
H          7.40602       -0.78764        0.57134
H          6.48976       -0.61232       -0.92740
H          6.98109        0.81165       -0.01817
H          6.30228       -0.08696        2.79579
H          5.74752        1.44796        2.13319
H          4.58929        0.32574        2.83604
H          4.10549       -1.90604        1.71183
H          5.80894       -2.28797        1.54053
H          4.77377       -2.24869        0.11598
H          5.15592        3.77798       -0.87819
H          5.84767        2.86654        0.47283
H          6.88497        3.36622       -0.88106
