111
-148.55539312
P         -2.59720        1.97304        0.78071
P          0.14703        0.44571        0.48050
C         -1.52704        1.75992        2.23079
C         -0.30290        1.14398        2.08153
C         -3.52920        3.57114        0.83483
C         -2.90513        4.61627       -0.06378
C         -1.92584        2.20291        3.47586
H         -2.89221        2.66450        3.59401
C         -1.09011        2.03594        4.56669
H         -1.40069        2.38216        5.53897
C          0.13893        1.42370        4.41239
H          0.78766        1.29091        5.26251
C          0.53138        0.97018        3.16602
H          1.47793        0.47027        3.03188
Pd        -1.24837        1.50760       -1.03147
Cl        -2.83476        2.31885       -2.39455
Cl        -0.00519        0.68741       -2.71897
C         -4.95330        3.14131        0.43736
C         -4.00262        0.77287        0.68131
H         -2.89640        4.28171       -1.10167
H         -3.45946        5.55691       -0.02675
H         -1.87080        4.81973        0.22339
H         -5.05874        3.23717       -0.65221
H         -5.69694        3.82877        0.86868
H         -3.97396        0.35556       -0.33429
C         -5.24194        1.67139        0.85784
C         -3.86629       -0.32166        1.71686
H         -3.51371        3.90670        1.87935
H         -5.54841        1.64701        1.91260
H         -6.09424        1.26253        0.29422
H         -2.95088       -0.89654        1.56458
H         -3.82459        0.10001        2.72291
H         -4.71014       -1.01453        1.68011
C         -1.20085       -3.90777        0.30714
C         -0.99848       -3.28474        1.56766
C         -0.56377       -1.96965        1.58677
C         -0.41193       -1.25699        0.42626
C         -0.72687       -1.81830       -0.78213
C         -1.16454       -3.12635       -0.87761
O         -1.35481       -5.31544        0.22366
C         -1.24461       -3.98129        2.91672
H         -0.33459       -1.48526        2.52003
H         -0.61301       -1.21698       -1.66696
C         -1.59955       -3.63241       -2.26263
C          4.54755        0.75039       -0.65114
C          3.79890       -0.40442       -0.99214
C          2.46350       -0.44698       -0.63117
C          1.88930        0.56403        0.09342
C          2.63125        1.63932        0.50696
C          3.97613        1.74154        0.18847
O          5.85356        0.93114       -1.17931
C          4.39164       -1.58407       -1.77836
H          1.84229       -1.27316       -0.92947
H          2.13944        2.40622        1.07986
C          4.78501        2.93068        0.73077
C         -2.05316       -3.04443        3.84172
C         -2.06202       -5.27605        2.76610
C          0.10559       -4.30013        3.57931
C         -0.35733       -3.82393       -3.14878
C         -2.38580       -4.95211       -2.18393
C         -2.53185       -2.58776       -2.91702
C         -0.11770       -5.99364        0.08150
H         -2.28809       -3.53852        4.78412
H         -1.50411       -2.13530        4.08104
H         -2.99307       -2.75756        3.37150
H         -2.30708       -5.70153        3.73897
H         -2.99326       -5.08278        2.23473
H         -1.50965       -6.02828        2.20792
H         -0.03904       -4.77723        4.54828
H          0.69843       -4.97093        2.96035
H          0.68661       -3.39176        3.73580
H          0.32095       -4.56013       -2.72142
H         -0.63857       -4.16424       -4.14495
H          0.19184       -2.88905       -3.25696
H         -1.75894       -5.76347       -1.82179
H         -3.23190       -4.85511       -1.50451
H         -2.76669       -5.24162       -3.16304
H         -2.91993       -2.95417       -3.86692
H         -3.37998       -2.36971       -2.26860
H         -2.01428       -1.65148       -3.11889
H         -0.30207       -7.06517        0.00186
H          0.39724       -5.64885       -0.81389
H          0.51559       -5.80084        0.94594
C          5.88395        1.61613       -2.42526
C          5.88515       -1.77198       -1.45718
C          3.67985       -2.90452       -1.40137
C          4.19703       -1.33706       -3.28213
C          6.25584        2.54084        0.96588
C          4.69934        4.09974       -0.26202
C          4.22170        3.39745        2.09255
H          6.46970       -0.90944       -1.76695
H          6.03289       -1.90798       -0.38636
H          6.28930       -2.64492       -1.96914
H          4.18209       -3.75811       -1.85601
H          3.68119       -3.05157       -0.32164
H          2.64771       -2.92104       -1.74824
H          4.70103       -0.42788       -3.60087
H          4.59290       -2.16551       -3.86891
H          3.13896       -1.22907       -3.52006
H          6.75037        2.27639        0.03460
H          6.81307        3.36422        1.41200
H          6.32328        1.68365        1.63494
H          5.10673        3.82430       -1.23173
H          3.66333        4.40248       -0.41216
H          5.25429        4.96359        0.10301
H          4.15104        2.56269        2.78947
H          3.23351        3.84312        1.98946
H          4.86747        4.15286        2.53974
H          6.33976        0.97868       -3.18266
H          4.87344        1.88477       -2.73589
H          6.48815        2.51837       -2.33185
