64
-97.20810169
Cl        -1.50684       -1.59147       -2.50906
Cl         1.63171       -1.47414       -2.92916
P          2.00535       -0.57837        0.24067
C          2.37107       -2.21662        1.01599
C          3.74059       -0.04743       -0.16286
P         -1.26883       -0.19678        0.38347
C          1.26439        0.59243        1.43152
C         -0.17364        0.76474        1.49656
C         -0.44332        1.84322        2.43628
C          0.82722        2.31240        2.96150
C          1.88689        1.52543        2.35684
H         -1.42591        2.24188        2.69293
H          0.96114        3.10707        3.69856
Pd         0.25185       -1.04691       -1.21793
H          2.95835        1.63025        2.53715
C         -4.78530        2.40665       -0.88706
C         -4.03498        1.75947       -1.84838
C         -2.98331        0.94773       -1.46780
C         -2.67426        0.79857       -0.13484
C         -3.43448        1.42500        0.82678
C         -4.49184        2.23452        0.45123
H         -5.60747        3.03859       -1.18114
H         -4.27285        1.87920       -2.89267
H         -2.41340        0.40887       -2.20511
H         -3.20677        1.26784        1.86860
H         -5.08488        2.72924        1.20284
C         -2.83917       -3.92436        2.45146
C         -2.45645       -2.82841        3.20049
C         -1.98202       -1.69315        2.56776
C         -1.89210       -1.66580        1.19495
C         -2.27678       -2.75233        0.44546
C         -2.75146       -3.88841        1.07342
H         -3.20870       -4.80927        2.94354
H         -2.52605       -2.85668        4.27550
H         -1.67432       -0.83002        3.13645
H         -2.19985       -2.70131       -0.62830
H         -3.05166       -4.74216        0.48837
C          3.93658        0.22913       -1.63800
H          3.91652        0.85956        0.42951
C          4.61583       -1.20661        0.35477
H          5.54872       -0.81792        0.78953
C          3.86127       -2.09915        1.37469
H          4.92772       -1.82088       -0.50069
C          1.46845       -2.48740        2.19946
H          2.22578       -2.97031        0.23049
H          3.94931       -1.66549        2.38055
H          4.31941       -3.09782        1.44174
H          1.54897       -1.68850        2.93898
H          0.42285       -2.54840        1.89377
H          1.72896       -3.42601        2.69366
H          3.26209        1.00531       -2.00063
H          4.95969        0.54653       -1.85097
H          3.74336       -0.66939       -2.22523
Fe         0.75208        2.44761        0.89224
C         -0.30063        2.95617       -0.77069
C          0.96175        2.34934       -1.14507
C          2.02635        3.14436       -0.56010
C          1.42016        4.24637        0.16699
C         -0.02167        4.13264        0.03259
H         -1.29066        2.61383       -1.07229
H          1.08404        1.47817       -1.79141
H          3.09881        2.97461       -0.67665
H          1.95509        5.03469        0.70163
H         -0.76440        4.81544        0.45188
