105
-153.06814632
Cl         0.24694        2.73341        2.75943
Pd        -0.21560        1.73257        0.79160
P         -0.74457        0.54784       -1.18349
N          0.37917       -0.72915       -1.63633
C          0.54394       -2.10247       -1.41279
C          0.02504       -2.80836       -0.29514
C          0.39924       -4.15274       -0.08564
C         -0.00075       -4.83906        1.19970
C          0.89441       -6.03546        1.55227
C          1.01791       -6.97763        0.35112
C          1.63014       -6.25332       -0.85987
C          1.20081       -4.81353       -1.01969
C          1.67020       -4.11244       -2.12299
C          1.36800       -2.78814       -2.30395
H          1.76778       -2.25247       -3.14767
H          2.30329       -4.62012       -2.83111
H          2.72401       -6.27790       -0.78483
H          1.60680       -7.86769        0.61397
H          1.89079       -5.67256        1.83408
H          0.00873       -4.10674        2.01681
C         -0.72377       -2.10036        0.77019
C         -0.00277       -1.21478        1.60698
C         -0.66807       -0.59145        2.66169
C         -1.99481       -0.84413        2.89810
C         -2.71544       -1.73114        2.10523
C         -4.15848       -1.99854        2.47114
C         -4.91186       -2.97174        1.54254
C         -3.97319       -4.02178        0.93765
C         -2.84510       -3.32507        0.16666
C         -2.07830       -2.36342        1.03479
H         -2.17053       -4.05420       -0.29550
H         -4.52137       -4.72290        0.29263
H         -5.38515       -2.40810        0.72968
H         -4.68684       -1.03792        2.51729
H         -2.49486       -0.35395        3.71616
H         -0.12482        0.10326        3.27726
N          1.34883       -0.96721        1.34911
P          1.86793        0.70322        1.12493
C          2.66971        0.91266       -0.46352
C          2.34075        1.99738       -1.24225
C          2.81301        2.07877       -2.53839
C          3.62072        1.07881       -3.06047
C          3.95931        0.00260       -2.25170
C          3.48953       -0.07758       -0.95298
H          3.73048       -0.92648       -0.33304
H          4.58018       -0.78146       -2.65056
C          4.07408        1.13765       -4.47745
H          2.53422        2.91088       -3.16226
H          1.69285        2.76462       -0.84895
C          2.86319        1.32147        2.47181
C          2.92045        0.59398        3.63541
C          3.66144        1.06650        4.70401
C          4.33984        2.27475        4.61135
C          4.27339        2.99013        3.42251
C          3.53182        2.51597        2.35525
H          3.46687        3.07322        1.43409
H          4.80332        3.92352        3.33874
C          5.15418        2.77462        5.75356
H          3.71492        0.49972        5.61774
H          2.38517       -0.34012        3.69844
H          1.75550       -1.49212        0.58787
H          1.19905       -0.22213       -1.94945
C         -0.61304        1.75305       -2.51259
C         -0.94250        3.07539       -2.33648
C         -0.79710        3.97018       -3.37871
C         -0.32058        3.54672       -4.61178
C         -0.01794        2.20301       -4.78298
C         -0.16352        1.31138       -3.73522
H          0.08157        0.26950       -3.86440
H          0.33714        1.85972       -5.73962
C         -0.17874        4.50591       -5.74179
H         -1.05553        5.00618       -3.24067
H         -1.32298        3.40101       -1.38411
C         -2.41528       -0.08503       -1.28961
C         -2.67575       -0.96037       -2.31789
C         -3.96566       -1.41876       -2.52500
C         -5.00045       -1.00799       -1.69606
C         -4.71989       -0.11300       -0.67181
C         -3.43346        0.35234       -0.47705
H         -3.22619        1.08649        0.28176
H         -5.51807        0.22956       -0.03576
C         -6.38473       -1.50859       -1.92088
H         -4.17447       -2.10431       -3.32840
H         -1.86585       -1.27904       -2.95556
Cl        -2.09099        2.94669        0.58180
H          1.39017       -6.79332       -1.78467
H          0.51228       -6.56902        2.43408
H          0.02174       -7.35383        0.08577
H         -1.03895       -5.17831        1.11985
H         -3.54169       -4.63017        1.74213
H         -3.27384       -2.76754       -0.66989
H         -4.17843       -2.38798        3.49621
H         -5.74055       -3.45633        2.07747
H          5.03227        0.63243       -4.60633
H          3.34824        0.65717       -5.13509
H          4.19623        2.16975       -4.80899
H          4.71310        2.48317        6.70780
H          6.16695        2.37138        5.71320
H          5.22427        3.86318        5.74107
H         -1.09562        4.54824       -6.33121
H          0.03548        5.51235       -5.37950
H          0.63578        4.21352       -6.40604
H         -6.39868       -2.59755       -1.98674
H         -7.05104       -1.21644       -1.10809
H         -6.79501       -1.10935       -2.84942
