72
-108.40150925
Cl        -1.80723        0.75093        2.60053
Cl         0.91639       -0.82668        2.77769
P          1.17665       -1.12748       -0.29568
P         -2.29854        0.14392       -0.35808
C         -3.27851       -1.46692       -0.13708
C         -3.63503       -1.63075        1.34108
C         -4.54289       -1.42288       -0.98752
C         -3.37742        1.69318       -0.11485
C         -4.17928        1.98440       -1.38946
C         -1.45963        0.43360       -2.02745
C         -1.51208       -0.73528       -2.98862
C          1.13772        0.23718       -1.50003
C         -0.04351        0.97979       -1.94458
C          0.44559        2.10301       -2.74608
C          1.89140        2.02060       -2.82818
C          2.31724        0.85442       -2.07838
C         -2.41400       -2.65427       -0.54614
H         -4.29849       -0.84597        1.69461
H         -4.14424       -2.58100        1.51001
H         -5.23303       -0.65623       -0.63940
H         -5.07032       -2.37701       -0.94000
C         -4.34518        1.55511        1.05660
H         -4.94585        2.73609       -1.19385
H         -4.68019        1.09384       -1.76483
H         -2.06416        1.23655       -2.45978
H         -2.52279       -1.12002       -3.12072
H         -0.87003       -1.54169       -2.64198
H         -1.14023       -0.44749       -3.97415
H         -0.18391        2.81253       -3.28658
H          2.54283        2.69501       -3.38885
Pd        -0.50052       -0.30088        1.10601
H          3.34398        0.52201       -1.91081
C         -2.40815        2.83600        0.15202
H         -3.55323        2.38361       -2.18652
H         -3.82939        1.26950        1.97102
H         -4.84429        2.50538        1.25166
H         -5.12520        0.82497        0.84900
H         -1.64704        2.89438       -0.62744
H         -2.93205        3.79339        0.18414
H         -1.91170        2.70112        1.11193
H         -2.74246       -1.62144        1.96687
H         -4.31415       -1.22395       -2.03367
H         -2.91455       -3.59494       -0.31063
H         -2.20872       -2.66573       -1.61338
H         -1.46738       -2.64520       -0.00873
C          2.85182       -1.20456        0.38555
C          3.28481       -2.14074        1.29117
C          4.62010       -1.85182        1.57283
C          4.94924       -0.74975        0.82303
O          3.87299       -0.34214        0.08905
H          2.69278       -2.93288        1.71926
H          5.26547       -2.38681        2.25023
H          5.91566       -0.26124        0.80651
C          0.78480       -2.72999       -1.01770
C          0.71237       -3.88652       -0.28124
C          0.38708       -4.91490       -1.16690
C          0.27500       -4.34105       -2.40961
O          0.51327       -2.99842       -2.33158
H          0.86166       -3.97194        0.78311
H          0.25010       -5.95569       -0.92286
H          0.03139       -4.86216       -3.32715
Fe         1.31017        2.13809       -0.88376
C          2.98956        2.72382        0.13512
C          2.14451        1.93840        1.01279
C          0.85587        2.59030        1.08629
C          0.90107        3.76712        0.23729
C          2.24096        3.88553       -0.31104
H          4.03178        2.50090       -0.10470
H          2.42351        1.01825        1.52871
H          0.01824        2.25082        1.69751
H          0.09715        4.49649        0.11206
H          2.60650        4.68021       -0.96518
