111
-148.55693188
P         -2.55878        2.02267        1.10153
P          0.11951        0.43440        0.51337
C         -1.44284        1.60219        2.46674
C         -0.25879        0.94912        2.19959
C         -3.35531        3.67634        1.33458
C         -2.77636        4.70043        0.38284
C         -1.77659        1.91694        3.76838
H         -2.71257        2.41000        3.97412
C         -0.91567        1.58278        4.79972
H         -1.17539        1.82785        5.81664
C          0.27347        0.93329        4.52829
H          0.94199        0.67091        5.33166
C          0.60124        0.61150        3.22341
H          1.51753        0.09004        2.99461
Pd        -1.34646        1.63833       -0.81265
Cl        -2.96546        2.45477       -2.13126
Cl        -0.01186        1.18999       -2.57236
C         -4.85004        3.37282        1.11771
C         -4.05710        0.94165        1.01613
H         -2.92986        4.39562       -0.65354
H         -3.24769        5.67754        0.51228
H         -1.70062        4.81915        0.53342
H         -5.10212        3.57810        0.06817
H         -5.47157        4.06105        1.71052
H         -4.17321        0.66647       -0.04085
C         -5.18954        1.89126        1.44870
C         -3.90048       -0.29183        1.87849
H         -3.17053        3.96849        2.37611
H         -5.34702        1.78403        2.53082
H         -6.13987        1.59171        0.98107
H         -3.05715       -0.90044        1.54580
H         -3.71645       -0.01699        2.91874
H         -4.79761       -0.91466        1.85243
C         -1.16650       -3.87450       -0.19585
C         -1.07712       -3.38479        1.13284
C         -0.67633       -2.07311        1.32340
C         -0.44208       -1.24593        0.25700
C         -0.62542       -1.68523       -1.02640
C         -1.02829       -2.98214       -1.28955
O         -1.35361       -5.26266       -0.43066
C         -1.36693       -4.26359        2.35954
H         -0.52794       -1.68107        2.31391
H         -0.43565       -0.99022       -1.82577
C         -1.27434       -3.40088       -2.74687
C          4.50975        0.65254       -0.66050
C          3.97402       -0.54803       -0.12312
C          2.63201       -0.56880        0.21735
C          1.85689        0.55690        0.11587
C          2.39946        1.75095       -0.27881
C          3.73456        1.84311       -0.63811
O          5.78016        0.64197       -1.29150
C          4.78834       -1.83236        0.10658
H          2.16803       -1.48232        0.55003
H          1.75769        2.61448       -0.32782
C          4.28628        3.23258       -0.99895
C         -1.88746       -3.40779        3.53700
C         -2.45600       -5.30644        2.04920
C         -0.07167       -4.96331        2.79854
C         -1.78189       -2.19946       -3.57800
C          0.04290       -3.90031       -3.35968
C         -2.35301       -4.49525       -2.83674
C         -0.14154       -5.99754       -0.54748
H         -1.11971       -2.73788        3.92117
H         -2.74522       -2.80924        3.23240
H         -2.20140       -4.04187        4.36585
H         -2.13045       -6.00390        1.28145
H         -2.70695       -5.88705        2.93655
H         -3.36364       -4.81906        1.69463
H         -0.24204       -5.58487        3.67723
H          0.32028       -5.59916        2.00839
H          0.69666       -4.23114        3.04630
H         -1.01112       -1.44097       -3.70537
H         -2.08337       -2.51835       -4.57537
H         -2.64367       -1.73389       -3.10053
H          0.42828       -4.76129       -2.81867
H         -0.09606       -4.19090       -4.40065
H          0.80329       -3.12032       -3.32527
H         -3.27766       -4.16141       -2.36710
H         -2.57086       -4.74649       -3.87446
H         -2.03629       -5.40727       -2.33718
H         -0.11716       -6.78385        0.20683
H         -0.09069       -6.46700       -1.52969
H          0.71772       -5.33886       -0.41442
C          5.70408        0.32577       -2.67179
C          6.30516       -1.58832        0.02611
C          4.49366       -2.37881        1.52140
C          4.37952       -2.88845       -0.93441
C          5.82441        3.26716       -1.01467
C          3.74716        3.65177       -2.37690
C          3.82404        4.26008        0.05790
H          6.60571       -1.29753       -0.97754
H          6.60278       -0.79202        0.70743
H          6.86225       -2.48728        0.28896
H          5.11380       -3.24806        1.73896
H          4.70034       -1.62095        2.27657
H          3.45498       -2.68711        1.62900
H          4.58365       -2.54336       -1.94617
H          4.92533       -3.81890       -0.78025
H          3.31451       -3.10964       -0.86825
H          6.22508        2.64169       -1.80876
H          6.19300        4.27992       -1.17598
H          6.22658        2.90504       -0.06916
H          2.65771        3.66665       -2.38066
H          4.09802        4.64757       -2.64635
H          4.07042        2.96097       -3.15299
H          2.74284        4.38711        0.05411
H          4.26542        5.23807       -0.13243
H          4.12353        3.94488        1.05703
H          5.08270        1.05508       -3.18861
H          6.70677        0.33840       -3.09957
H          5.26754       -0.66256       -2.80581
