111
-148.55062978
P         -2.09218        2.54479        0.86780
P         -0.22816       -0.02528        0.54222
C         -1.35218        1.76955        2.32653
C         -0.55146        0.65748        2.18258
C         -1.76343        4.36535        0.87592
C         -1.12179        4.80251       -0.42291
C         -1.54377        2.32474        3.57542
H         -2.15140        3.20921        3.67688
C         -0.93768        1.75737        4.68294
H         -1.08935        2.18871        5.65894
C         -0.12673        0.64883        4.53574
H          0.35679        0.21442        5.39523
C          0.07532        0.10440        3.28018
H          0.73625       -0.73773        3.14522
Pd        -1.33290        1.37123       -0.95969
Cl        -2.72295        2.53944       -2.27309
Cl        -0.30162        0.23139       -2.60145
C         -3.16130        4.97132        1.11816
C         -3.94329        2.54310        0.85019
H         -0.18603        4.26918       -0.60417
H         -1.78404        4.59717       -1.26571
H         -0.90703        5.87381       -0.42473
H         -3.22762        5.95040        0.62157
H         -3.30171        5.17340        2.19020
H         -4.24026        1.93104       -0.01276
C         -4.29209        4.02802        0.62005
C         -4.51648        1.96366        2.12559
H         -1.09103        4.56195        1.72221
H         -5.24292        4.26424        1.11958
H         -4.46750        4.20716       -0.45102
H         -4.14393        0.95224        2.30463
H         -4.24092        2.57464        2.98631
H         -5.60767        1.92115        2.09069
C         -0.96410       -4.51664        0.19128
C         -1.17756       -3.87610        1.43865
C         -0.95293       -2.51215        1.52429
C         -0.60226       -1.77882        0.41974
C         -0.51913       -2.37908       -0.80942
C         -0.72588       -3.73750       -0.96857
O         -0.95210       -5.93472        0.11220
C         -1.60629       -4.64596        2.69776
H         -1.04502       -2.00427        2.46670
H         -0.28670       -1.75832       -1.65565
C         -0.65519       -4.34185       -2.37972
C          4.00647        1.06003       -0.71276
C          3.59755       -0.29729       -0.77536
C          2.30556       -0.61066       -0.39033
C          1.46424        0.35001        0.10376
C          1.88620        1.64403        0.26401
C          3.16710        2.02563       -0.09911
O          5.23709        1.46102       -1.29743
C          4.50683       -1.42035       -1.29805
H          1.93150       -1.61374       -0.48957
H          1.18815        2.35785        0.66759
C          3.60929        3.47718        0.14184
C         -0.35637       -5.13283        3.44638
C         -2.42360       -3.73636        3.64331
C         -2.50667       -5.84123        2.33586
C          0.79809       -4.72801       -2.69466
C         -1.57202       -5.57212       -2.50414
C         -1.13167       -3.31734       -3.43512
C          0.33353       -6.51314        0.29972
H          0.24054       -5.79723        2.82628
H          0.27383       -4.29097        3.73235
H         -0.62962       -5.67333        4.35229
H         -2.83742       -4.31174        4.47115
H         -1.80889       -2.94949        4.07800
H         -3.25322       -3.27068        3.11197
H         -3.37303       -5.50977        1.76446
H         -1.97168       -6.57329        1.73591
H         -2.86454       -6.34793        3.23178
H          0.87961       -5.16261       -3.69058
H          1.44549       -3.85250       -2.65558
H          1.17822       -5.45295       -1.97876
H         -1.57109       -5.96039       -3.52232
H         -1.25071       -6.37527       -1.84585
H         -2.59716       -5.31437       -2.24028
H         -0.43893       -2.48264       -3.53019
H         -1.20850       -3.78137       -4.41805
H         -2.11223       -2.91999       -3.17472
H          0.61916       -7.06950       -0.59280
H          1.07491       -5.73783        0.49745
H          0.30187       -7.20841        1.13848
C          5.13185        1.83474       -2.66557
C          4.29368       -1.57761       -2.81146
C          5.98732       -1.12707       -0.99541
C          4.16615       -2.76265       -0.61012
C          3.27268        4.32465       -1.09447
C          2.87436        4.07587        1.36336
C          5.11703        3.55228        0.44276
H          4.91469       -2.37794       -3.21296
H          3.25283       -1.81453       -3.03084
H          4.54102       -0.66104       -3.34165
H          6.62300       -1.95410       -1.31076
H          6.32977       -0.23428       -1.51215
H          6.13693       -0.97223        0.07258
H          3.18283       -3.12901       -0.90038
H          4.88687       -3.53221       -0.88573
H          4.18633       -2.65811        0.47432
H          3.54955        5.36726       -0.94042
H          3.79889        3.96464       -1.97494
H          2.20528        4.28664       -1.30924
H          3.27943        5.05530        1.61673
H          1.81153        4.21125        1.16897
H          2.98427        3.43228        2.23582
H          5.70794        3.21766       -0.40632
H          5.36996        2.92211        1.29474
H          5.42021        4.57317        0.67369
H          4.09407        1.77620       -2.99647
H          5.49911        2.85273       -2.79487
H          5.74536        1.17224       -3.27573
