75
-122.81785005
P          1.81562       -0.57960        0.02966
C          3.13191       -1.29805       -0.96528
C          4.39854       -1.34922       -0.42892
C          5.43139       -1.91542       -1.15435
C          5.18523       -2.43476       -2.40963
C          3.91008       -2.39439       -2.93749
C          2.87978       -1.82824       -2.20964
H          1.88044       -1.79403       -2.61184
H          3.71695       -2.80167       -3.91633
H          5.98890       -2.87496       -2.97710
H          6.42476       -1.95301       -0.73836
H          4.57130       -0.95495        0.56047
C          1.69582       -1.58239        1.51556
C          1.64091       -0.99746        2.75973
C          1.63612       -1.78896        3.89317
C          1.68524       -3.16349        3.77171
C          1.73524       -3.74720        2.52130
C          1.74282       -2.95190        1.38930
H          1.79925       -3.39163        0.40586
H          1.77021       -4.81997        2.42617
H          1.67730       -3.78207        4.65424
H          1.58831       -1.33300        4.86834
H          1.59192        0.07589        2.83819
C          2.20559        1.12713        0.45151
C          3.36021        1.77441        0.07804
C          3.53457        3.12321        0.35597
C          2.50259        3.81652        0.98780
C          1.33316        3.18487        1.34857
C          1.18373        1.81302        1.08998
O         -0.00056        1.13482        1.42126
C         -1.19117        1.80697        1.10050
C         -1.34748        3.17674        1.36612
C         -2.52655        3.80087        1.02410
C         -3.56117        3.10258        0.40219
C         -3.37835        1.75750        0.11211
C         -2.21361        1.11780        0.46648
P         -1.81292       -0.57976        0.01841
C         -1.67918       -1.60243        1.48945
C         -1.66801       -1.03482        2.74277
C         -1.65151       -1.84320        3.86418
C         -1.64580       -3.21657        3.72133
C         -1.65278       -3.78234        2.46170
C         -1.67192       -2.97049        1.34166
H         -1.69505       -3.39649        0.35084
H         -1.64506       -4.85405        2.35002
H         -1.62871       -3.84803        4.59456
H         -1.63777       -1.40099        4.84673
H         -1.66369        0.03841        2.83781
C         -3.12744       -1.29405       -0.98248
C         -4.38855       -1.37504       -0.43684
C         -5.42045       -1.93601       -1.16766
C         -5.17892       -2.41992       -2.43791
C         -3.90923       -2.34924       -2.97564
C         -2.87988       -1.78832       -2.24245
H         -1.88506       -1.72949       -2.65286
H         -3.71965       -2.72868       -3.96629
H         -5.98196       -2.85586       -3.00955
H         -6.40959       -1.99682       -0.74440
H         -4.55771       -1.00737        0.56336
Pd         0.00958       -0.01946       -1.38694
Cl        -1.55773        0.98760       -2.67469
Cl         1.50980        0.90600       -2.79988
H         -4.14095        1.21760       -0.42056
C         -4.80880        3.80023       -0.00744
H         -5.01956        4.64746        0.64641
H         -5.66646        3.12749        0.03433
H         -4.72386        4.17460       -1.02836
H         -2.64027        4.85087        1.22818
S         -0.00495        4.06021        2.11876
H          2.61047        4.86850        1.18474
C          4.77051        3.82901       -0.07470
H          4.12166        1.23706       -0.45878
H          5.63361        3.16266       -0.04530
H          4.66667        4.20086       -1.09478
H          4.98540        4.67905        0.57412
