58
-89.86645377
P          1.52612        0.26025        0.87477
C          1.57400        1.98019        0.35653
C          1.73373        2.24358       -0.98461
C          1.76154        3.55067       -1.43363
C          1.63541        4.58746       -0.53047
C          1.48834        4.31976        0.81653
C          1.45981        3.01054        1.26199
H          1.34896        2.79157        2.31132
H          1.83897        1.41730       -1.66987
C          3.16565       -0.46764        0.82900
C          4.26556        0.35903        0.86671
C          5.53708       -0.18525        0.83531
C          5.69644       -1.55520        0.76657
C          4.58979       -2.38045        0.72910
C          3.31963       -1.83329        0.76174
H          2.44820       -2.46645        0.71678
H          4.12392        1.42695        0.91624
C          0.83822        0.04889        2.57171
C          0.12592       -1.29145        2.72897
C         -1.35603       -1.25873        2.38237
P         -1.74832       -0.63761        0.68920
C         -3.24995       -1.42660        0.10448
C         -3.27593       -2.79333       -0.05174
C         -4.42732       -3.41088       -0.50740
C         -5.54393       -2.65359       -0.80224
C         -5.51253       -1.28203       -0.64431
C         -4.35974       -0.66756       -0.18955
H         -4.31892        0.40240       -0.06513
H         -2.39159       -3.36978        0.17045
C         -1.89506        1.15837        0.60217
C         -1.97565        1.94718        1.72693
C         -2.03849        3.32258        1.59914
C         -2.02513        3.90141        0.34579
C         -1.95677        3.10781       -0.78118
C         -1.89454        1.73295       -0.64906
H         -1.83741        1.09698       -1.51882
H         -1.99986        1.49278        2.70290
Pd         0.12458       -0.72014       -0.68834
Cl         1.95509       -0.98056       -1.96641
Cl        -1.28048       -1.60355       -2.20149
H         -1.79206       -2.25823        2.45399
H         -1.90771       -0.63606        3.08808
H          0.63292       -2.03802        2.10266
H          0.24407       -1.65846        3.76056
H          1.69036        0.14030        3.25026
H          0.16627        0.87718        2.79529
H          1.88080        3.75757       -2.48438
H          1.39227        5.12984        1.52069
H          6.40021        0.45939        0.86184
H          4.71411       -3.44920        0.66926
H         -4.44980       -4.48052       -0.63614
H         -6.38266       -0.69055       -0.87731
H         -2.09481        3.94263        2.47877
H         -1.94511        3.55681       -1.76065
H          1.65413        5.60782       -0.87713
H          6.68623       -1.98098        0.73894
H         -6.44051       -3.13361       -1.15926
H         -2.06730        4.97388        0.24718
