72
-98.09083228
Fe         0.04141        2.80142        0.14813
P          1.86568       -0.08277       -0.10941
P         -1.84461       -0.05329        0.05505
C          1.47575        1.51650        0.70244
C          0.52471        1.70344        1.78484
C          0.49896        3.11581        2.12258
C          1.45854        3.80011        1.27464
C          2.06503        2.81115        0.39940
C         -1.40810        1.62364       -0.55861
C         -1.96778        2.88885       -0.10788
C         -1.33676        3.95851       -0.86283
C         -0.39487        3.35723       -1.78904
C         -0.44522        1.91738       -1.60628
C          3.18604       -0.90000        0.89155
C          4.44140       -0.16379        0.39695
C          2.87688        0.20891       -1.63907
C          4.33437        0.21555       -1.11088
C         -2.89681        0.11550        1.57649
C         -4.30981        0.18216        0.96224
C         -3.10885       -0.78323       -1.09245
C         -4.42439       -0.73347       -0.28706
H         -0.07484        0.91923        2.24505
H         -0.11474        3.57698        2.89992
H          1.69101        4.86711        1.29728
H          2.83576        2.99988       -0.35083
H         -2.73493        3.01083        0.65959
H          0.14181        1.18048       -2.15233
Cl         1.53914       -3.07468       -0.50330
Cl        -1.62397       -3.01068        0.30823
Pd         0.00357       -1.48667       -0.05721
H          3.22492       -1.95539        0.59950
C          2.90739       -0.77375        2.38378
H          2.58878        1.19203       -2.03006
C          2.65273       -0.86748       -2.70076
H          5.34306       -0.76587        0.58896
H          4.56505        0.74796        0.99933
H          4.80424        1.19329       -1.29388
H          4.92318       -0.49761       -1.70441
H         -1.54707        5.02571       -0.76272
H          0.23133        3.89122       -2.50737
H          2.86175        0.29109        2.64803
H          3.43941       -0.78172       -3.46352
H         -2.62201        1.05930        2.06299
C         -2.75130       -1.04326        2.56147
H         -2.80616       -1.81923       -1.28647
C         -3.14745       -0.01736       -2.41060
H         -4.54414        1.21900        0.67825
H         -5.05968       -0.09610        1.71791
H         -4.70816       -1.74801        0.02825
H         -5.24257       -0.38998       -0.93480
H         -3.56320       -0.98479        3.29965
H         -2.12144        0.09287       -2.78839
C          3.93892       -1.48772        3.24385
H          3.71628       -1.39874        4.30958
H          3.98111       -2.55189        3.00436
H          4.93908       -1.08149        3.08300
C          1.29029       -0.81992       -3.37475
H          0.48130       -0.95058       -2.65615
H          1.13154        0.13420       -3.88054
H          1.18040       -1.60648       -4.12484
C         -1.41428       -1.09422        3.28229
H         -1.23644       -0.18097        3.85302
H         -1.36111       -1.93093        3.98262
H         -0.58795       -1.21215        2.58177
C         -4.01610       -0.68236       -3.46887
H         -4.01348       -0.12548       -4.40866
H         -3.66555       -1.69317       -3.68583
H         -5.05392       -0.76631       -3.14293
H          1.90274       -1.16570        2.59455
H          2.81084       -1.84930       -2.23611
H         -2.92666       -1.98186        2.02122
H         -3.49389        1.00616       -2.21448
