105
-153.06923541
Cl        -0.03443        1.92686        3.03454
Pd        -0.62651        1.12567        1.00865
P         -1.24419        0.53273       -1.15302
N         -0.91081       -1.02201       -1.89507
C          0.10845       -1.93808       -1.61398
C          0.33449       -2.46569       -0.31394
C          1.33575       -3.44357       -0.13236
C          1.53750       -4.03783        1.24248
C          2.81775       -4.87390        1.40260
C          3.03697       -5.78607        0.19322
C          3.14794       -4.95615       -1.09345
C          2.07922       -3.90020       -1.22455
C          1.82452       -3.38303       -2.48761
C          0.85848       -2.43197       -2.68124
H          0.67300       -2.04406       -3.66769
H          2.40217       -3.73951       -3.32367
H          4.12875       -4.46846       -1.13594
H          3.92783       -6.41472        0.33360
H          3.67933       -4.20286        1.50936
H          1.54082       -3.22682        1.97914
C         -0.60512       -2.17949        0.79984
C         -0.13157       -1.56910        1.99655
C         -0.99542       -1.48718        3.09323
C         -2.28046       -1.95526        3.01538
C         -2.76286       -2.55036        1.85664
C         -4.17820       -3.07164        1.86382
C         -4.45042       -4.12628        0.78167
C         -3.89764       -3.66944       -0.57082
C         -2.38469       -3.40500       -0.49488
C         -1.92589       -2.67007        0.74406
H         -1.84058       -4.35526       -0.55133
H         -4.41388       -2.75316       -0.88303
H         -5.52531       -4.34541        0.70989
H         -4.86450       -2.22598        1.74028
H         -2.93526       -1.86446        3.86551
H         -0.64623       -1.01330        3.99383
N          1.14035       -0.98579        2.09342
P          1.55161        0.21149        0.86762
C          2.67384       -0.38827       -0.38508
C          2.56588        0.09460       -1.66463
C          3.47267       -0.30881       -2.62743
C          4.50384       -1.18094       -2.30290
C          4.60536       -1.64122       -0.99642
C          3.69380       -1.23945       -0.03657
H          3.76897       -1.58495        0.98224
H          5.40150       -2.31729       -0.73559
C          5.45579       -1.65184       -3.34612
H          3.38075        0.04903       -3.63858
H          1.76909        0.77793       -1.90189
C          2.37954        1.64867        1.55752
C          3.17679        1.53174        2.67024
C          3.81741        2.64955        3.17346
C          3.66209        3.88797        2.56464
C          2.86949        3.97924        1.42835
C          2.23029        2.86088        0.92567
H          1.61003        2.92922        0.04545
H          2.75414        4.93177        0.94000
C          4.36686        5.08757        3.09528
H          4.44364        2.56614        4.04524
H          3.30174        0.56859        3.13768
H          1.33098       -0.52700        2.97489
H         -1.18415       -0.90527       -2.86241
C         -0.50335        1.88172       -2.07507
C          0.11237        1.65809       -3.28367
C          0.71605        2.70757       -3.95156
C          0.70386        3.98785       -3.41408
C          0.04993        4.19987       -2.20796
C         -0.55286        3.14892       -1.54300
H         -1.07496        3.30871       -0.61243
H          0.01463        5.19291       -1.79350
C          1.34049        5.12131       -4.14013
H          1.20571        2.53690       -4.89513
H          0.13679        0.66170       -3.69269
C         -3.02651        0.72058       -1.21520
C         -3.60461        1.59085       -2.10856
C         -4.98094        1.72045       -2.14919
C         -5.78563        0.98298       -1.29124
C         -5.18269        0.10155       -0.40459
C         -3.80623       -0.02655       -0.36803
H         -3.33038       -0.69990        0.32486
H         -5.79849       -0.48089        0.25885
C         -7.26853        1.10588       -1.34785
H         -5.43918        2.39880       -2.84846
H         -2.97831        2.16721       -2.77013
Cl        -2.56285        2.25613        1.23899
H          3.10977       -5.61217       -1.97261
H          2.78668       -5.46101        2.33134
H          2.19399       -6.48318        0.10608
H          0.66169       -4.65101        1.48563
H         -4.12354       -4.41018       -1.35092
H         -2.07260       -2.83828       -1.37834
H         -4.40001       -3.48326        2.85687
H         -3.97470       -5.07295        1.06747
H          5.10157       -2.57700       -3.80298
H          5.57346       -0.90942       -4.13668
H          6.44233       -1.84239       -2.92128
H          5.35196        5.19197        2.63853
H          3.80214        5.99815        2.89046
H          4.50176        5.01880        4.17560
H          2.19015        4.78103       -4.73376
H          0.62799        5.59857       -4.81427
H          1.70548        5.87851       -3.44473
H         -7.68854        0.40200       -2.06764
H         -7.71773        0.90125       -0.37503
H         -7.56878        2.11160       -1.64517
