111
-148.55134433
P         -2.20410        2.19785        1.27850
P          0.10872        0.14549        0.60187
C         -1.16677        1.54202        2.61086
C         -0.15687        0.65559        2.30817
C         -2.44991        4.02288        1.45853
C         -1.94865        4.75956        0.23560
C         -1.37524        1.92695        3.91967
H         -2.15922        2.62999        4.14928
C         -0.57476        1.41131        4.92450
H         -0.73785        1.70948        5.94730
C          0.43282        0.51648        4.61832
H          1.05532        0.11461        5.40072
C          0.64347        0.13782        3.30431
H          1.42555       -0.55903        3.04579
Pd        -1.30903        1.42539       -0.70319
Cl        -2.97895        2.40121       -1.83607
Cl        -0.23321        0.64706       -2.51647
C         -3.96957        4.15468        1.69552
C         -3.96082        1.61957        1.32184
H         -2.50151        4.45010       -0.65270
H         -2.07131        5.84028        0.33976
H         -0.89086        4.55486        0.05323
H         -4.33220        5.08533        1.23544
H         -4.17317        4.25920        2.77135
H         -4.09369        0.95116        0.45996
C         -4.75255        2.93071        1.14127
C         -4.26845        0.89097        2.61202
H         -1.88191        4.32976        2.34735
H         -5.73243        2.84061        1.63270
H         -4.96755        3.09071        0.07433
H         -3.58888        0.04978        2.76297
H         -4.15870        1.55919        3.46775
H         -5.29164        0.50780        2.62305
C         -1.23913       -4.14962       -0.10043
C         -1.71711       -3.43694        1.02947
C         -1.26450       -2.14259        1.22957
C         -0.43677       -1.53633        0.32054
C         -0.07622       -2.17748       -0.83525
C         -0.47747       -3.47745       -1.08944
O         -1.50239       -5.53927       -0.23326
C         -2.69990       -4.05187        2.03877
H         -1.55058       -1.58807        2.10617
H          0.51772       -1.63508       -1.54975
C         -0.06659       -4.14379       -2.41166
C          4.28711        0.99004       -0.99140
C          3.94726       -0.33145       -0.60358
C          2.67362       -0.56431       -0.11232
C          1.78176        0.46280        0.05322
C          2.14288        1.75709       -0.21486
C          3.40241        2.06105       -0.70457
O          5.49420        1.23276       -1.69951
C          4.91603       -1.51398       -0.75976
H          2.35240       -1.56184        0.13098
H          1.41235        2.53197       -0.05497
C          3.76185        3.53220       -0.96395
C         -3.58556       -2.95626        2.67405
C         -3.64961       -5.04947        1.35060
C         -1.91230       -4.75206        3.15632
C          0.13650       -3.08519       -3.51997
C          1.25637       -4.89873       -2.21193
C         -1.16049       -5.10835       -2.90384
C         -0.53297       -6.37819        0.38202
H         -4.36967       -3.39951        3.28750
H         -3.00810       -2.29818        3.32153
H         -4.06492       -2.35189        1.90432
H         -3.10725       -5.89992        0.94536
H         -4.38920       -5.43463        2.05211
H         -4.17948       -4.56932        0.52857
H         -2.58558       -5.19084        3.89229
H         -1.28478       -5.54627        2.75956
H         -1.26366       -4.04409        3.67177
H          0.29506       -3.56232       -4.48673
H         -0.73682       -2.43905       -3.60481
H          1.00744       -2.46082       -3.32582
H          1.58618       -5.36181       -3.14157
H          2.03972       -4.22037       -1.87570
H          1.15538       -5.68175       -1.46481
H         -1.30648       -5.93041       -2.20731
H         -2.11141       -4.58731       -3.00990
H         -0.89870       -5.53755       -3.87063
H         -1.00789       -6.98063        1.15605
H         -0.11163       -7.05423       -0.36182
H          0.26428       -5.77918        0.82395
C          5.36008        1.16191       -3.11369
C          6.37332       -1.06756       -0.54360
C          4.61874       -2.60833        0.29063
C          4.75002       -2.12472       -2.15977
C          3.03679        4.45552        0.04204
C          5.27120        3.77794       -0.78787
C          3.32144        3.91618       -2.38501
H          7.05486       -1.91632       -0.59446
H          6.68478       -0.35029       -1.29890
H          6.48965       -0.59679        0.43201
H          3.66217       -3.09527        0.10647
H          5.38221       -3.38560        0.26572
H          4.60302       -2.18720        1.29554
H          5.40132       -2.98874       -2.28906
H          3.72212       -2.44887       -2.31884
H          4.99164       -1.40364       -2.93647
H          3.22121        4.13306        1.06645
H          3.38747        5.48287       -0.05389
H          1.96085        4.46945       -0.12503
H          5.85303        3.22006       -1.51695
H          5.51339        4.83319       -0.91156
H          5.59657        3.46924        0.20499
H          3.55177        4.95984       -2.59727
H          2.24751        3.77548       -2.50597
H          3.81950        3.30289       -3.13194
H          5.61065        2.12608       -3.55547
H          6.05170        0.41799       -3.50884
H          4.33882        0.89160       -3.38544
