111
-148.55521410
P         -1.70678        2.75172        0.25235
P         -0.44867       -0.13870        0.52766
C         -1.38814        2.05344        1.89906
C         -0.91096        0.76479        2.01724
C         -0.57481        4.17795       -0.07301
C          0.36800        3.86317       -1.21523
C         -1.59033        2.81576        3.03192
H         -1.92372        3.83584        2.93393
C         -1.33959        2.27492        4.28126
H         -1.50137        2.86914        5.16578
C         -0.87592        0.97832        4.39610
H         -0.67490        0.55985        5.36856
C         -0.65028        0.22401        3.25880
H         -0.25349       -0.77660        3.32767
Pd        -1.58615        0.93383       -1.16969
Cl        -2.97551        1.97105       -2.59157
Cl        -1.35254       -0.88506       -2.47065
C         -1.54086        5.34647       -0.35537
C         -3.34571        3.60517        0.12865
H          0.99806        3.00105       -0.98751
H         -0.19142        3.62684       -2.12270
H          1.02219        4.70929       -1.43820
H         -1.62085        5.48035       -1.44285
H         -1.12215        6.29005        0.02578
H         -3.71834        3.39194       -0.88151
C         -2.95729        5.09070        0.23464
C         -4.33962        3.12250        1.16349
H         -0.02233        4.34761        0.86036
H         -2.97809        5.39021        1.29139
H         -3.71078        5.71938       -0.26420
H         -5.30607        3.61847        1.04842
H         -4.50038        2.04495        1.08394
H         -3.98741        3.32642        2.17486
C         -0.46556       -4.66413        1.01330
C         -1.58006       -4.02017        0.41688
C         -1.56597       -2.63832        0.31939
C         -0.47064       -1.91574        0.71271
C          0.65244       -2.54103        1.18842
C          0.70239       -3.91921        1.31715
O         -0.53026       -6.04640        1.33359
C         -2.79260       -4.79644       -0.12099
H         -2.40996       -2.10385       -0.08141
H          1.49891       -1.93084        1.45407
C          2.00691       -4.57941        1.79033
C          3.57473        1.45920       -0.87874
C          2.86862        0.51963       -1.67645
C          1.65018        0.05415       -1.21334
C          1.17448        0.41972        0.01727
C          1.90847        1.22915        0.84331
C          3.13448        1.73308        0.44376
O          4.65869        2.18736       -1.43305
C          3.36515       -0.00892       -3.03162
H          1.02732       -0.56794       -1.83373
H          1.50201        1.48641        1.80613
C          3.93348        2.56138        1.46302
C         -3.83542       -4.95229        0.99577
C         -3.44148       -4.03964       -1.30282
C         -2.37333       -6.17949       -0.65189
C          3.23100       -3.74268        1.35185
C          2.00090       -4.67598        3.32329
C          2.17629       -5.97876        1.17122
C         -1.03968       -6.31637        2.63337
H         -4.16063       -3.97737        1.35808
H         -4.71326       -5.48964        0.63785
H         -3.42775       -5.50055        1.84174
H         -2.69784       -3.79359       -2.06043
H         -4.21300       -4.64706       -1.77528
H         -3.91701       -3.11552       -0.97809
H         -3.22018       -6.70255       -1.09540
H         -1.59984       -6.07955       -1.41261
H         -1.97945       -6.80710        0.14370
H          4.15889       -4.27128        1.56905
H          3.20151       -3.54474        0.28061
H          3.27715       -2.78898        1.87557
H          1.91347       -3.68640        3.77134
H          1.16438       -5.27411        3.67686
H          2.92007       -5.13261        3.68945
H          3.13225       -6.41926        1.45331
H          1.39235       -6.65596        1.50109
H          2.13518       -5.92450        0.08386
H         -0.29184       -6.85575        3.21438
H         -1.29498       -5.38643        3.14298
H         -1.92739       -6.94377        2.55478
C          4.24609        3.38469       -2.07174
C          3.20480       -1.54507       -3.06903
C          2.52473        0.61267       -4.15983
C          4.85407        0.29511       -3.26985
C          5.39951        2.75659        1.03941
C          3.26097        3.93249        1.64438
C          3.95050        1.82415        2.82061
H          3.73035       -2.00667       -2.23354
H          2.15946       -1.84444       -3.01530
H          3.61313       -1.95605       -3.99191
H          2.83857        0.23496       -5.13248
H          1.46825        0.37760       -4.03397
H          2.62363        1.69638       -4.17314
H          5.20840       -0.17212       -4.18838
H          5.02878        1.36485       -3.35657
H          5.45909       -0.07627       -2.44348
H          5.96998        3.26057        1.81924
H          5.87240        1.79585        0.83879
H          5.47326        3.35891        0.13721
H          3.80176        4.53852        2.37074
H          3.22817        4.48261        0.70593
H          2.23695        3.81952        1.99895
H          4.34974        0.81677        2.70569
H          2.95367        1.74421        3.25112
H          4.57347        2.35265        3.54176
H          5.10861        3.85653       -2.54278
H          3.49612        3.16542       -2.83001
H          3.81669        4.06960       -1.34262
