111
-148.55195535
P         -2.32947        2.35895       -0.31491
P         -0.07744        0.29525        0.51166
C         -1.86118        2.19669        1.42393
C         -0.89906        1.27890        1.78315
C         -2.20853        4.11295       -0.88513
C         -1.04947        4.28045       -1.84360
C         -2.47977        2.96513        2.38871
H         -3.22288        3.68913        2.09572
C         -2.14409        2.79652        3.72096
H         -2.62784        3.39351        4.47673
C         -1.19700        1.85770        4.08292
H         -0.94291        1.71883        5.12087
C         -0.57416        1.09487        3.11124
H          0.15501        0.34674        3.38055
Pd        -1.17899        0.73822       -1.48451
Cl        -2.32359        1.38065       -3.30754
Cl        -0.06051       -0.89910       -2.54049
C         -3.59433        4.38094       -1.50268
C         -4.12862        2.03979       -0.62544
H         -0.97123        5.31021       -2.20040
H         -0.10139        4.01072       -1.37143
H         -1.17478        3.63643       -2.71622
H         -3.53391        4.21506       -2.58708
H         -3.87073        5.43924       -1.38121
H         -4.17099        1.43387       -1.54041
C         -4.68384        3.44891       -0.90013
C         -4.78794        1.30774        0.52390
H         -2.06321        4.72101        0.01744
H         -5.05265        3.87510        0.04291
H         -5.56183        3.39183       -1.56146
H         -4.30691        0.34460        0.70661
H         -4.72209        1.88692        1.44590
H         -5.84635        1.12459        0.32511
C         -1.12518       -4.11151        0.90502
C          0.19026       -3.74594        0.51937
C          0.49291       -2.39865        0.41895
C         -0.42959       -1.44109        0.74780
C         -1.66733       -1.78892        1.22248
C         -2.03074       -3.11854        1.36020
O         -1.55318       -5.46012        0.78455
C          1.26635       -4.77675        0.14638
H          1.45093       -2.07775        0.05080
H         -2.35572       -1.00026        1.47362
C         -3.40489       -3.45545        1.95908
C          4.38126        1.20412        0.11359
C          3.69871        0.49745       -0.90810
C          2.34278        0.27236       -0.75197
C          1.67819        0.65260        0.38417
C          2.35527        1.25382        1.41342
C          3.71380        1.50983        1.32703
O          5.72101        1.63011       -0.09023
C          4.39565        0.00311       -2.18581
H          1.77215       -0.19919       -1.53177
H          1.80280        1.53544        2.29097
C          4.43610        2.13115        2.53364
C          2.67245       -4.25129        0.51519
C          1.06936       -6.09749        0.91219
C          1.21427       -5.02889       -1.36836
C         -3.80927       -2.39932        3.01329
C         -4.45773       -3.46439        0.84052
C         -3.38192       -4.81707        2.67711
C         -2.13733       -5.76391       -0.47617
H          2.95981       -3.39829       -0.09662
H          2.71050       -3.94946        1.56150
H          3.42643       -5.02293        0.36131
H          0.13166       -6.57694        0.64335
H          1.87264       -6.80066        0.69355
H          1.05712       -5.91957        1.98695
H          1.97669       -5.74549       -1.67252
H          0.24472       -5.42027       -1.66815
H          1.38087       -4.10308       -1.91869
H         -4.71980       -2.69893        3.53169
H         -3.02421       -2.27676        3.75903
H         -4.00466       -1.42873        2.56051
H         -5.44830       -3.68339        1.23830
H         -4.50003       -2.49577        0.34293
H         -4.22490       -4.21322        0.08696
H         -2.60678       -4.83402        3.44252
H         -4.33803       -5.02303        3.15764
H         -3.18180       -5.62896        1.98249
H         -3.15384       -6.12902       -0.33022
H         -2.15731       -4.87545       -1.10876
H         -1.56035       -6.54619       -0.96904
C          5.83944        2.92206       -0.67286
C          5.85527       -0.39431       -1.90104
C          3.68929       -1.25279       -2.74662
C          4.34256        1.10701       -3.25271
C          3.74852        1.71820        3.85532
C          5.89425        1.64413        2.61805
C          4.39393        3.66250        2.41957
H          6.33164       -0.80147       -2.79252
H          6.44324        0.46004       -1.57525
H          5.90085       -1.14953       -1.11706
H          2.69278       -1.02334       -3.12070
H          4.25277       -1.67406       -3.57875
H          3.60009       -2.02225       -1.98106
H          4.81989        0.78064       -4.17630
H          3.31026        1.37117       -3.48128
H          4.84734        2.00838       -2.91416
H          4.33267        2.04767        4.71432
H          2.75976        2.16414        3.95263
H          3.64531        0.63513        3.91681
H          5.93351        0.55604        2.65702
H          6.47185        1.96760        1.75583
H          6.38664        2.03356        3.50877
H          4.88969        4.13107        3.26937
H          3.36424        4.01822        2.39112
H          4.88682        4.00476        1.51299
H          6.39899        3.57529       -0.00355
H          6.38697        2.85048       -1.61248
H          4.85277        3.34865       -0.85761
