111
-148.55668269
P         -2.56590        1.97105        1.03592
P          0.15758        0.47731        0.45902
C         -1.45373        1.57252        2.41111
C         -0.23933        0.97748        2.14607
C         -3.43726        3.58114        1.30925
C         -2.82742        4.69623        0.48833
C         -1.81122        1.85586        3.71392
H         -2.77017        2.30248        3.91903
C         -0.94382        1.54924        4.74829
H         -1.22215        1.77007        5.76584
C          0.27617        0.95901        4.47902
H          0.95004        0.71787        5.28458
C          0.62740        0.66744        3.17340
H          1.56720        0.18885        2.94741
Pd        -1.32867        1.64925       -0.88645
Cl        -2.97333        2.63673       -2.04318
Cl         0.01583        1.19056       -2.62669
C         -4.89623        3.23889        0.95596
C         -4.01744        0.83293        0.87668
H         -1.77200        4.83731        0.73309
H         -2.88876        4.47299       -0.57734
H         -3.34468        5.64381        0.65573
H         -5.06159        3.45843       -0.10791
H         -5.58891        3.89484        1.50506
H         -4.05948        0.54189       -0.18158
C         -5.21147        1.74017        1.22993
C         -3.86628       -0.38432        1.76277
H         -3.34996        3.80364        2.38022
H         -5.45450        1.60628        2.29297
H         -6.10996        1.42147        0.68000
H         -4.73682       -1.04060        1.69286
H         -2.98374       -0.96516        1.48796
H         -3.75338       -0.09100        2.80810
C         -1.28386       -3.79932       -0.17653
C         -1.05833       -3.32169        1.13990
C         -0.60012       -2.02482        1.29789
C         -0.42983       -1.19888        0.21827
C         -0.73404       -1.62671       -1.04589
C         -1.20874       -2.90567       -1.27533
O         -1.54777       -5.17736       -0.39670
C         -1.27260       -4.19572        2.38533
H         -0.36459       -1.64059        2.27444
H         -0.58551       -0.93776       -1.85863
C         -1.61631       -3.30102       -2.70296
C          4.59996        0.58918       -0.52286
C          4.04509       -0.53149        0.14652
C          2.68615       -0.52735        0.41287
C          1.90893        0.56053        0.11188
C          2.45979        1.68945       -0.43412
C          3.81075        1.74882       -0.73555
O          5.93219        0.53611       -1.01253
C          4.87834       -1.75720        0.55279
H          2.20777       -1.38869        0.84699
H          1.80940        2.52038       -0.64610
C          4.38609        3.04289       -1.33200
C         -2.42837       -5.18978        2.17137
C          0.02641       -4.95203        2.70253
C         -1.64736       -3.32700        3.60812
C         -2.74294       -4.34988       -2.68929
C         -2.15576       -2.07229       -3.47186
C         -0.38988       -3.84812       -3.44848
C         -0.38294       -5.95834       -0.63269
H         -2.20277       -5.89501        1.37529
H         -2.62286       -5.76542        3.07596
H         -3.34276       -4.66237        1.90150
H          0.31873       -5.59661        1.87708
H          0.84385       -4.25433        2.88368
H         -0.09023       -5.57354        3.58999
H         -1.91602       -3.95304        4.45869
H         -0.81820       -2.69656        3.92584
H         -2.49970       -2.68668        3.38345
H         -3.60057       -3.98378       -2.12585
H         -3.07523       -4.58139       -3.70094
H         -2.41504       -5.27909       -2.23026
H         -1.37163       -1.34381       -3.67206
H         -2.56884       -2.36920       -4.43546
H         -2.94560       -1.57757       -2.90713
H         -0.64587       -4.12518       -4.47078
H          0.40093       -3.09938       -3.48938
H          0.01311       -4.72789       -2.95231
H          0.51066       -5.33507       -0.57946
H         -0.31804       -6.75116        0.11239
H         -0.44506       -6.42103       -1.61747
C          6.04405        0.01740       -2.33209
C          6.32503       -1.35729        0.89463
C          4.28585       -2.42391        1.81592
C          4.86608       -2.78209       -0.59163
C          4.27438        2.98660       -2.86329
C          3.60031        4.27450       -0.82724
C          5.85326        3.24526       -0.91195
H          6.89763       -2.21688        1.24207
H          6.83940       -0.94811        0.02883
H          6.33865       -0.60111        1.67885
H          4.15823       -1.69458        2.61550
H          3.31997       -2.88495        1.61438
H          4.94440       -3.21084        2.18291
H          3.84652       -3.09294       -0.81903
H          5.29439       -2.36494       -1.49977
H          5.43878       -3.67042       -0.32641
H          3.23514        2.86639       -3.16863
H          4.65682        3.90047       -3.31707
H          4.83636        2.14913       -3.26931
H          2.58531        4.29433       -1.22123
H          3.54760        4.28148        0.26115
H          4.08366        5.19818       -1.14475
H          6.49079        2.45589       -1.30200
H          5.94524        3.24292        0.17364
H          6.23985        4.19401       -1.28330
H          5.05895       -0.23690       -2.72540
H          6.51312        0.75939       -2.97805
H          6.67346       -0.87228       -2.32406
