64
-97.21930455
Cl        -1.59777       -0.83281       -2.66860
Cl         1.57965       -1.25080       -2.95407
P          1.90185       -0.69485        0.27844
C          2.04078       -2.36938        1.05779
C          3.70421       -0.34866       -0.02520
P         -1.26710       -0.15663        0.46078
C          1.27385        0.56263        1.44908
C         -0.14798        0.82516        1.52494
C         -0.34644        1.95556        2.41934
C          0.95778        2.38786        2.89062
C          1.96242        1.52160        2.29910
H         -1.30900        2.37576        2.71692
H          1.14808        3.20606        3.58866
Pd         0.15325       -0.88755       -1.27081
H          3.04184        1.58303        2.45062
C         -5.06590        2.03036       -0.80801
C         -4.05069        2.73887       -0.19714
C         -2.89578        2.08789        0.19450
C         -2.75418        0.73702       -0.02893
C         -3.76895        0.02834       -0.63098
C         -4.92746        0.67401       -1.02463
H         -5.96660        2.53609       -1.11583
H         -4.15677        3.79768       -0.02637
H         -2.10065        2.63336        0.67098
H         -3.64699       -1.02996       -0.79850
H         -5.71783        0.11856       -1.50222
C         -2.54971       -3.98470        2.54112
C         -2.39544       -2.82176        3.27071
C         -2.01117       -1.65499        2.63408
C         -1.78153       -1.66431        1.27782
C         -1.94268       -2.81680        0.54405
C         -2.32646       -3.98434        1.17789
H         -2.84858       -4.89415        3.03641
H         -2.57273       -2.82221        4.33366
H         -1.88170       -0.73799        3.18710
H         -1.77921       -2.79331       -0.52160
H         -2.45268       -4.89026        0.60808
C          4.07875       -0.41793       -1.48955
H          3.90574        0.65402        0.37411
C          4.40445       -1.43313        0.81729
H          4.60805       -1.05003        1.82798
C          3.53545       -2.71490        0.91742
H          5.38788       -1.66343        0.38209
C          1.57120       -2.32086        2.49567
H          1.41475       -3.05231        0.46728
H          3.85277       -3.33405        1.76891
H          3.69532       -3.33496        0.02337
H          2.17734       -1.62014        3.07331
H          0.53443       -1.98804        2.56472
H          1.64408       -3.29948        2.97593
H          3.83561       -1.39964       -1.89895
H          3.54466        0.32514       -2.08301
H          5.14854       -0.25478       -1.63672
Fe         0.85910        2.44044        0.82823
C          2.28517        3.14968       -0.52837
C          1.47804        4.22966        0.01142
C          0.08546        3.95407       -0.30216
C          0.02867        2.70165       -1.03472
C          1.38240        2.19610       -1.14310
H          3.37332        3.07170       -0.48268
H          1.85529        5.11319        0.53125
H         -0.76340        4.60155       -0.06998
H         -0.86119        2.23014       -1.45672
H          1.66948        1.30127       -1.69763
