171
-217.84862124
P         -1.62409        0.39863       -0.25975
P          1.59560       -0.40277       -0.23920
C         -0.86612        1.35394       -1.57798
C          0.84872       -1.36801       -1.55553
C         -0.08617        0.73051       -2.54574
C          0.54585        1.52722       -3.51998
C          0.35454        2.89905       -3.50162
C         -0.43525        3.49519       -2.54127
C         -1.04016        2.71614       -1.57496
C          1.01919       -2.73043       -1.54013
C          0.42818       -3.51398       -2.51143
C         -0.34334       -2.92192       -3.48924
C         -0.53039       -1.54967       -3.51978
C          0.08676       -0.74866       -2.53994
Cl         1.60486        0.36568        2.90849
Cl        -1.60145       -0.31401        2.94786
C         -1.37032       -0.94940       -4.59220
C          1.41026        0.92545       -4.57195
H         -0.57842        4.56335       -2.54167
H         -1.65203        3.17276       -0.81389
H          1.61782       -3.18277       -0.76595
H          0.56964       -4.58230       -2.50342
H          0.83818        3.50289       -4.25091
H         -0.81512       -3.52932       -4.24318
C         -3.89851       -3.23290       -1.70237
C         -2.93038       -3.39771       -0.72020
C         -2.23780       -2.27052       -0.29561
C         -2.49150       -1.04720       -0.86374
C         -3.43662       -0.90428       -1.85060
C         -4.16967       -2.00231       -2.28635
H         -4.47495       -4.08683       -2.00674
H         -1.50239       -2.33306        0.48764
H         -3.60445        0.07508       -2.26571
C         -4.48713        2.90997        2.21156
C         -5.00125        1.92392        1.38037
C         -4.10259        1.17949        0.62772
C         -2.75389        1.42877        0.69631
C         -2.26468        2.41564        1.51715
C         -3.12622        3.17177        2.30253
H         -5.16583        3.48041        2.81871
H         -4.44953        0.38485       -0.00748
H         -1.20093        2.57349        1.56006
C          4.47593       -2.88062        2.25124
C          3.11412       -3.13226        2.36635
C          2.24347       -2.39074        1.57626
C          2.72464       -1.42450        0.72705
C          4.07327       -1.18408        0.63713
C          4.98049       -1.91142        1.39357
H          5.15407       -3.44945        2.85911
H          1.17980       -2.54212        1.63801
H          4.42602       -0.40810       -0.01847
C          3.93622        3.16488       -1.72939
C          2.95500        3.36818       -0.76722
C          2.23778        2.26266       -0.32710
C          2.47962        1.02322       -0.86406
C          3.43400        0.84291       -1.83549
C          4.19352        1.91731       -2.28334
H          4.53496        4.00126       -2.03916
H          1.49336        2.35464        0.44457
H          3.59053       -0.14823       -2.22669
Pd        -0.01850        0.02556        1.39447
C         -2.44923       -5.81399       -1.22316
C         -2.69216       -4.78264       -0.10462
C         -3.93037       -5.18659        0.71451
C         -1.46333       -4.78030        0.82349
H         -1.60671       -5.51521       -1.84556
H         -2.22824       -6.79619       -0.80570
H         -3.32095       -5.91807       -1.86764
H         -3.79181       -6.16406        1.17615
H         -4.12043       -4.46209        1.50624
H         -4.81876       -5.23476        0.08551
H         -1.27523       -5.77826        1.21926
H         -0.57111       -4.46125        0.28518
H         -1.61431       -4.11346        1.67208
C         -6.64368       -2.15818       -2.62347
C         -5.29912       -1.88037       -3.31986
C         -5.08913       -2.90483       -4.45171
C         -5.34941       -0.47081       -3.94103
H         -6.81144       -1.45061       -1.81251
H         -7.47295       -2.07029       -3.32516
H         -6.66735       -3.16186       -2.20016
H         -4.12666       -2.75685       -4.93871
H         -5.11921       -3.92659       -4.07585
H         -5.86628       -2.80996       -5.20995
H         -4.40615       -0.22136       -4.42584
H         -6.13539       -0.40768       -4.69347
H         -5.55905        0.28542       -3.18493
C         -6.98747        1.21609        2.73312
C         -6.51377        1.66509        1.33900
C         -6.87276        0.56443        0.32144
C         -7.24309        2.95879        0.93192
H         -8.05662        1.00466        2.73310
H         -6.46373        0.31223        3.04378
H         -6.79884        1.98514        3.48129
H         -7.94996        0.40128        0.29083
H         -6.55172        0.84183       -0.68239
H         -6.40404       -0.38321        0.58632
H         -8.31917        2.79695        0.87081
H         -7.06754        3.75724        1.65180
H         -6.89786        3.30433       -0.04238
C         -3.25034        5.59388        2.94939
C         -2.61839        4.23180        3.28968
C         -1.08643        4.37640        3.22749
C         -3.00926        3.81555        4.71951
H         -2.88835        6.37060        3.62282
H         -3.00224        5.88858        1.92983
H         -4.33587        5.56034        3.03347
H         -0.59141        3.43845        3.47887
H         -0.76945        4.68179        2.23167
H         -0.73851        5.13204        3.93159
H         -2.64274        4.53614        5.45033
H         -4.09080        3.74766        4.83048
H         -2.58640        2.84106        4.96337
C          3.21371       -5.54710        3.04206
C          2.61581       -4.16985        3.38217
C          1.08034       -4.28694        3.36620
C          3.05383       -3.74315        4.79538
H          2.85917       -6.30832        3.73682
H          2.92987       -5.85105        2.03460
H          4.30173       -5.53095        3.09280
H          0.60997       -3.33480        3.61154
H          0.72951       -4.60668        2.38654
H          0.73897       -5.02157        4.09529
H          4.13903       -3.69637        4.87724
H          2.65739       -2.75718        5.03738
H          2.69265       -4.44657        5.54535
C          6.72755       -0.12773        1.62254
C          6.47906       -1.60510        1.26289
C          6.92301       -1.86548       -0.18841
C          7.32573       -2.48610        2.20101
H          6.39043        0.08252        2.63729
H          7.78795        0.11611        1.56073
H          6.19310        0.54086        0.94863
H          6.37712       -1.23330       -0.88736
H          7.98621       -1.66187       -0.31456
H          6.74183       -2.90362       -0.46616
H          8.38557       -2.25369        2.09741
H          7.05272       -2.32351        3.24350
H          7.19614       -3.54321        1.96970
C          3.96229        5.18005        0.63371
C          2.72813        4.77093       -0.18894
C          1.48922        4.80763        0.72517
C          2.51036        5.77590       -1.33625
H          4.13498        4.47291        1.44488
H          4.85801        5.20247        0.01375
H          3.83056        6.17007        1.06993
H          1.62201        4.16038        1.59178
H          1.30972        5.81747        1.09387
H          0.59885        4.48666        0.18495
H          2.29948        6.77172       -0.94678
H          3.38950        5.85048       -1.97474
H          1.66947        5.47258       -1.95878
C          5.23078        2.78686       -4.41023
C          5.34683        1.74338       -3.28208
C          5.33980        0.33953       -3.91884
C          6.67893        1.93853       -2.53580
H          4.27380        2.70086       -4.92301
H          5.31469        3.80254       -4.02639
H          6.02038        2.64897       -5.14876
H          5.49460       -0.43537       -3.16878
H          4.39618        0.14353       -4.42681
H          6.13834        0.24490       -4.65458
H          6.74059        2.93446       -2.09807
H          6.77868        1.21319       -1.72867
H          7.52671        1.81386       -3.20920
H         -2.26283       -1.54980       -4.76635
H          1.72141       -0.08504       -4.30383
H         -0.81950       -0.89057       -5.53188
H         -1.69749        0.05687       -4.32720
H          2.31223        1.52000       -4.71734
H          0.88548        0.87641       -5.52700
