105
-153.06321400
Cl         0.01052        1.91683        3.11210
Pd        -0.45745        1.30915        0.99272
P         -1.05748        0.53790       -1.14327
N         -0.55553       -0.92556       -1.98422
C          0.27551       -1.98210       -1.61774
C          0.34690       -2.48670       -0.29527
C          1.23911       -3.54304       -0.00954
C          1.28768       -4.10171        1.39395
C          2.47529       -5.03633        1.67641
C          2.70467       -6.00554        0.51412
C          2.98314       -5.23188       -0.78220
C          2.01373       -4.10379       -1.02939
C          1.88937       -3.62034       -2.32517
C          1.03643       -2.58899       -2.61563
H          0.96514       -2.21269       -3.62132
H          2.48628       -4.05999       -3.10630
H          3.99869       -4.81920       -0.75574
H          3.52450       -6.70201        0.74068
H          3.38096       -4.43598        1.82993
H          1.30852       -3.26752        2.10384
C         -0.65164       -2.08676        0.72806
C         -0.21781       -1.49561        1.94693
C         -1.13849       -1.36403        2.99062
C         -2.43461       -1.78364        2.84531
C         -2.88063       -2.35557        1.66013
C         -4.30969       -2.83995        1.60409
C         -4.61872       -3.76524        0.41703
C         -3.95720       -3.25305       -0.86463
C         -2.43354       -3.15700       -0.69374
C         -1.99413       -2.49273        0.58894
H         -1.99017       -4.15882       -0.73638
H         -4.35870       -2.26211       -1.10979
H         -5.70387       -3.87216        0.27754
H         -4.97377       -1.96938        1.57633
H         -3.12796       -1.67196        3.66174
H         -0.81837       -0.90508        3.90953
N          1.08467       -1.00240        2.11969
P          1.63088        0.22665        0.98002
C          2.62831       -0.32761       -0.38922
C          2.46528        0.28805       -1.60514
C          3.26857       -0.07788       -2.66962
C          4.24982       -1.04788       -2.51114
C          4.40586       -1.64651       -1.26732
C          3.59947       -1.28098       -0.20434
H          3.71597       -1.73713        0.76593
H          5.15859       -2.40515       -1.13791
C          5.08565       -1.47387       -3.66706
H          3.13306        0.38480       -3.63213
H          1.70114        1.03892       -1.71661
C          2.55621        1.54334        1.77585
C          3.29481        1.28471        2.90517
C          4.00713        2.30648        3.50677
C          3.99098        3.58865        2.97384
C          3.23943        3.82770        1.83115
C          2.52881        2.80496        1.22963
H          1.94689        2.98680        0.33928
H          3.21034        4.82115        1.41727
C          4.73093        4.69629        3.63944
H          4.57892        2.11378        4.39841
H          3.31579        0.28621        3.31095
H          1.25369       -0.58033        3.02364
H         -0.81794       -0.83363       -2.95770
C         -0.61074        1.94995       -2.17110
C         -0.92759        3.22372       -1.76386
C         -0.57121        4.31082       -2.53829
C          0.11329        4.13207       -3.73207
C          0.41290        2.83960       -4.13947
C          0.05169        1.75530       -3.36115
H          0.30138        0.75622       -3.67567
H          0.93274        2.68756       -5.07001
C          0.48078        5.30063       -4.57882
H         -0.82329        5.30755       -2.21865
H         -1.45589        3.36225       -0.83591
C         -2.85284        0.48506       -1.11735
C         -3.50404        0.62379       -2.32042
C         -4.88647        0.58205       -2.36617
C         -5.62600        0.41484       -1.20353
C         -4.95041        0.27063       -0.00028
C         -3.56882        0.29451        0.03956
H         -3.04386        0.17301        0.97323
H         -5.51563        0.14749        0.90747
C         -7.11272        0.34752       -1.24707
H         -5.39889        0.68321       -3.30754
H         -2.92730        0.76553       -3.22136
Cl        -2.27593        2.64122        1.04587
H          2.96567       -5.91299       -1.64271
H          2.32466       -5.58577        2.61644
H          1.81317       -6.63138        0.38103
H          0.34634       -4.62910        1.58862
H         -4.21544       -3.89356       -1.71980
H         -2.00683       -2.61025       -1.54148
H         -4.54282       -3.34976        2.54778
H         -4.24944       -4.77518        0.63577
H          6.06191       -1.83167       -3.33700
H          4.60025       -2.28045       -4.21833
H          5.25253       -0.64641       -4.35809
H          4.09782        5.19828        4.37226
H          5.61569        4.32379        4.15759
H          5.06155        5.44082        2.91388
H         -0.32357        5.54282       -5.27473
H          0.67484        6.18348       -3.96806
H          1.38049        5.09760       -5.16140
H         -7.45207       -0.68857       -1.28581
H         -7.55216        0.81320       -0.36384
H         -7.50630        0.86393       -2.12365
