111
-148.55333485
P         -2.48354        2.31783        0.38701
P         -0.02438        0.32896        0.51716
C         -1.78042        1.86719        1.99261
C         -0.73807        0.96870        2.04517
C         -2.70359        4.14766        0.23865
C         -1.98107        4.66707       -0.98512
C         -2.29478        2.39597        3.15909
H         -3.09664        3.11442        3.10946
C         -1.77554        2.00351        4.38071
H         -2.17748        2.41430        5.29247
C         -0.74839        1.08087        4.43251
H         -0.34905        0.76893        5.38353
C         -0.22891        0.56072        3.26064
H          0.57160       -0.16237        3.28409
Pd        -1.29203        1.18849       -1.24076
Cl        -2.79709        1.89945       -2.74171
Cl        -0.12215       -0.16571       -2.60105
C         -4.23631        4.31841        0.18189
C         -4.23692        1.75679        0.16704
H         -2.09476        5.74881       -1.08971
H         -0.91273        4.44095       -0.94226
H         -2.37876        4.20428       -1.89019
H         -4.48560        5.17832       -0.45668
H         -4.62253        4.57051        1.18039
H         -4.22136        0.98118       -0.61091
C         -4.94315        3.03302       -0.33305
C         -4.81582        1.20453        1.45278
H         -2.28601        4.59407        1.15141
H         -5.99766        3.01728       -0.02100
H         -4.95833        3.04302       -1.43289
H         -5.82327        0.80951        1.30200
H         -4.19390        0.40383        1.85897
H         -4.88219        1.98503        2.21212
C         -1.01430       -4.06762       -0.10207
C          0.33611       -3.68293        0.09999
C          0.61316       -2.34027        0.29146
C         -0.39330       -1.41355        0.35561
C         -1.70725       -1.79193        0.26670
C         -2.05475       -3.11823        0.06810
O         -1.32074       -5.39452       -0.50603
C          1.50012       -4.68576        0.06539
H          1.62857       -1.99553        0.37428
H         -2.46161       -1.02659        0.33213
C         -3.54217       -3.49409       -0.01666
C          4.48774        0.97276        0.25665
C          3.77394        1.49796        1.36398
C          2.40568        1.29154        1.42128
C          1.73798        0.66309        0.40151
C          2.41109        0.26657       -0.72434
C          3.77945        0.43132       -0.84528
O          5.90807        0.95893        0.26501
C          4.46584        2.24932        2.51238
H          1.84172        1.61624        2.27664
H          1.83978       -0.17650       -1.51980
C          4.47379       -0.00766       -2.14397
C          2.67556       -4.19134        0.93991
C          1.06856       -6.05342        0.62454
C          1.99942       -4.83510       -1.37987
C         -4.00754       -3.38899       -1.47736
C         -3.78851       -4.91426        0.52338
C         -4.39931       -2.53264        0.83707
C         -1.34305       -5.58318       -1.91556
H          3.14966       -3.30668        0.51715
H          2.33561       -3.95139        1.94702
H          3.44614       -4.95769        1.02084
H          0.67919       -5.94834        1.63663
H          0.29062       -6.50462        0.01379
H          1.90828       -6.74730        0.65425
H          2.31312       -3.87149       -1.77987
H          2.84856       -5.51608       -1.43171
H          1.21916       -5.22221       -2.02997
H         -3.86237       -2.37697       -1.85501
H         -3.44778       -4.06325       -2.12043
H         -5.06489       -3.63568       -1.56943
H         -4.85102       -5.15618        0.51933
H         -3.27913       -5.66256       -0.07835
H         -3.42401       -5.00390        1.54615
H         -4.01255       -2.46468        1.85357
H         -4.42295       -1.53259        0.40780
H         -5.43101       -2.87914        0.89326
H         -2.33241       -5.91980       -2.22462
H         -1.09826       -4.65166       -2.42764
H         -0.62261       -6.35252       -2.19281
C          6.47344       -0.21604        0.83282
C          4.88733        1.24519        3.59586
C          5.69230        3.02962        2.00514
C          3.50611        3.28266        3.14553
C          5.69692        0.87735       -2.44430
C          4.90002       -1.47833       -2.01987
C          3.51416        0.12500       -3.34883
H          5.37479        1.75124        4.42879
H          4.02021        0.71214        3.98527
H          5.57951        0.50572        3.20058
H          6.45608        2.36031        1.61719
H          5.40852        3.71203        1.20466
H          6.14341        3.61486        2.80606
H          2.68530        2.80072        3.67465
H          4.03115        3.90464        3.87018
H          3.08586        3.93883        2.38379
H          6.15233        0.60655       -3.39652
H          5.40826        1.92679       -2.49244
H          6.45844        0.77616       -1.67506
H          5.59593       -1.62025       -1.19672
H          4.03502       -2.11422       -1.83523
H          5.38379       -1.82339       -2.93325
H          3.08639        1.12602       -3.39592
H          2.69799       -0.59396       -3.29604
H          4.04060       -0.05846       -4.28510
H          7.09251        0.05257        1.68860
H          5.68723       -0.90100        1.15300
H          7.10792       -0.70895        0.09641
