111
-148.55628937
P         -2.76888        1.75597       -0.30239
P          0.15089        0.63513        0.15106
C         -1.84536        2.24026        1.17853
C         -0.55253        1.79259        1.34567
C         -3.80943        3.13672       -0.96083
C         -3.18855        3.75380       -2.19511
C         -2.42668        3.04426        2.13788
H         -3.44395        3.37630        2.00995
C         -1.70516        3.40457        3.26296
H         -2.15786        4.03209        4.01324
C         -0.40757        2.95885        3.42669
H          0.15306        3.23686        4.30398
C          0.16872        2.14634        2.46712
H          1.17441        1.77698        2.58902
Pd        -1.21340        0.83787       -1.72591
Cl        -2.75207        0.61425       -3.33961
Cl         0.45062       -0.07851       -2.92799
C         -5.16899        2.45363       -1.19970
C         -4.06956        0.47357       -0.00112
H         -3.80515        4.56500       -2.58925
H         -2.19494        4.15502       -1.98146
H         -3.07820        3.01047       -2.98615
H         -5.20859        2.10317       -2.24037
H         -5.98767        3.18284       -1.10200
H         -3.92793       -0.28916       -0.77872
C         -5.37997        1.24719       -0.24080
C         -3.94493       -0.13602        1.37814
H         -3.89081        3.87918       -0.15687
H         -5.75780        1.60974        0.72510
H         -6.15813        0.57097       -0.62630
H         -2.98363       -0.63721        1.50257
H         -4.01587        0.63277        2.14971
H         -4.73352       -0.86876        1.56435
C         -1.21698       -3.53730        1.35094
C         -0.84277       -3.27587        0.00822
C         -0.41987       -1.99914       -0.31437
C         -0.31261       -1.02449        0.64125
C         -0.56319       -1.30250        1.95893
C         -0.97526       -2.56393        2.35471
O         -1.87385       -4.75226        1.68136
C         -0.94528       -4.32793       -1.10593
H         -0.18452       -1.73445       -1.33025
H         -0.45375       -0.50921        2.67750
C         -1.19031       -2.84152        3.85034
C          4.68880        0.96558       -0.04824
C          3.90194        1.52765       -1.08629
C          2.52288        1.44521       -0.98373
C          1.93186        0.76132        0.04552
C          2.69037        0.12073        0.99072
C          4.07373        0.17642        0.95661
O          6.08623        1.21527        0.00184
C          4.52016        2.21828       -2.31248
H          1.88643        1.90456       -1.71997
H          2.18040       -0.43066        1.76194
C          4.88067       -0.59426        2.01326
C         -0.70169       -5.74520       -0.55729
C         -2.33506       -4.23995       -1.75522
C          0.12336       -4.07483       -2.19409
C         -0.92514       -4.32059        4.18478
C         -0.20916       -2.00514        4.70329
C         -2.62693       -2.45959        4.23823
C         -3.29190       -4.68115        1.59809
H         -1.46601       -6.02929        0.16166
H         -0.71302       -6.48313       -1.35903
H          0.26462       -5.80196       -0.05730
H         -2.43652       -4.96630       -2.56106
H         -3.12201       -4.43045       -1.02933
H         -2.50266       -3.24707       -2.17236
H          0.14052       -4.89034       -2.91663
H         -0.07553       -3.16023       -2.75066
H          1.11623       -3.99804       -1.75183
H         -1.63305       -4.97447        3.68176
H          0.07750       -4.61056        3.87228
H         -1.01270       -4.50217        5.25569
H         -0.26947       -2.29042        5.75332
H          0.81805       -2.15814        4.37333
H         -0.43188       -0.94060        4.64846
H         -2.80898       -1.40179        4.05005
H         -3.35491       -3.02809        3.66424
H         -2.80917       -2.64935        5.29567
H         -3.65341       -5.41718        0.88016
H         -3.72781       -4.91071        2.57023
H         -3.60556       -3.68436        1.28525
C          6.44050        2.39254        0.71631
C          5.87732        1.58927       -2.67707
C          3.60402        2.05433       -3.54722
C          4.69131        3.71689       -2.02294
C          4.10509       -1.84377        2.49043
C          6.21818       -1.08965        1.43402
C          5.13254        0.31661        3.22427
H          5.77113        0.51738       -2.84067
H          6.28366        2.03274       -3.58574
H          6.60793        1.73466       -1.88531
H          2.67784        2.61679       -3.44048
H          4.09765        2.41953       -4.44744
H          3.35093        1.00629       -3.70538
H          5.11828        4.23403       -2.88185
H          3.73034        4.17742       -1.79494
H          5.34720        3.88173       -1.17149
H          3.21832       -1.57396        3.06209
H          3.79502       -2.45511        1.64329
H          4.72685       -2.46088        3.13864
H          6.04947       -1.70048        0.54780
H          6.85890       -0.25872        1.14923
H          6.76224       -1.69068        2.16219
H          5.69515       -0.20721        3.99664
H          4.19001        0.64854        3.65923
H          5.69589        1.20231        2.94076
H          6.97339        3.07557        0.05508
H          5.54847        2.88450        1.10610
H          7.10288        2.13287        1.54194
