111
-148.54747887
P         -1.54362        2.67874        0.55258
P         -0.28602       -0.21855        0.56611
C         -1.07728        1.90745        2.13164
C         -0.60646        0.61064        2.13593
C         -0.42871        4.08916        0.13031
C          0.23850        3.85415       -1.20809
C         -1.14455        2.61246        3.31671
H         -1.45068        3.64462        3.30606
C         -0.77842        2.00502        4.50529
H         -0.83672        2.55576        5.42995
C         -0.32889        0.69881        4.50755
H         -0.03727        0.22824        5.43205
C         -0.22923        0.00373        3.31598
H          0.16225       -1.00130        3.29323
Pd        -1.56039        0.93931       -0.97170
Cl        -3.20646        1.90556       -2.14859
Cl        -1.38663       -0.81475       -2.37219
C         -1.38184        5.30276        0.15063
C         -3.19437        3.52637        0.52309
H          0.88051        4.69249       -1.48866
H          0.85222        2.95075       -1.19456
H         -0.50971        3.73132       -1.99390
H         -1.04655        6.04452       -0.58898
H         -1.32156        5.80905        1.12535
H         -3.83324        2.92551       -0.13770
C         -2.85598        4.88685       -0.12154
C         -3.83944        3.64160        1.88790
H          0.32010        4.15510        0.93121
H         -3.55108        5.65388        0.25031
H         -3.02354        4.83584       -1.20762
H         -3.90153        2.66963        2.38217
H         -3.26934        4.31176        2.53168
H         -4.85068        4.04896        1.81761
C         -0.66339       -4.75244        0.81359
C         -1.62345       -3.92296        1.44664
C         -1.45949       -2.54948        1.36583
C         -0.42947       -2.00029        0.64690
C          0.43933       -2.79649       -0.05244
C          0.32410       -4.17658       -0.02573
O         -0.67273       -6.15427        1.04301
C         -2.81363       -4.49246        2.23465
H         -2.13557       -1.88272        1.87338
H          1.21543       -2.32173       -0.62605
C          1.26512       -5.02486       -0.89588
C          3.53565        1.63116       -1.08337
C          2.75057        0.79329       -1.91902
C          1.61269        0.21617       -1.38239
C          1.28774        0.37791       -0.06102
C          2.10427        1.09292        0.77565
C          3.26036        1.69493        0.30850
O          4.53012        2.46931       -1.65016
C          3.06126        0.51751       -3.39921
H          0.92203       -0.31601       -2.01351
H          1.81224        1.20666        1.80552
C          4.15884        2.40479        1.33488
C         -3.29959       -5.81893        1.62245
C         -2.39869       -4.70473        3.69843
C         -4.01100       -3.51585        2.19886
C          2.53463       -5.36118       -0.09940
C          0.57174       -6.31767       -1.36302
C          1.67337       -4.24897       -2.16844
C          0.13201       -6.56952        2.13938
H         -3.55099       -5.68624        0.57072
H         -2.53569       -6.58970        1.68784
H         -4.18495       -6.18828        2.13934
H         -1.56931       -5.40355        3.77567
H         -2.08239       -3.76434        4.14932
H         -3.22724       -5.09933        4.28600
H         -4.89506       -3.97132        2.64447
H         -3.80506       -2.60473        2.75863
H         -4.25675       -3.24172        1.17324
H          3.22626       -5.95235       -0.69911
H          3.04820       -4.45082        0.20899
H          2.29910       -5.92818        0.79789
H         -0.35315       -6.08694       -1.89062
H          1.21364       -6.88608       -2.03554
H          0.32416       -6.96134       -0.52260
H          0.79461       -3.87502       -2.69337
H          2.31804       -3.40462       -1.93118
H          2.22612       -4.89070       -2.85414
H          0.61674       -5.70967        2.60345
H         -0.48903       -7.07852        2.87626
H          0.88985       -7.27122        1.79144
C          4.02997        3.74173       -2.02884
C          2.91121       -0.99300       -3.68279
C          2.06723        1.29329       -4.28023
C          4.50116        0.90387       -3.77893
C          4.36430        1.48405        2.55828
C          5.55541        2.72245        0.77324
C          3.47850        3.70525        1.79531
H          3.18777       -1.22471       -4.71099
H          3.55654       -1.57212       -3.02313
H          1.88654       -1.33144       -3.53933
H          1.04093        1.00095       -4.05992
H          2.14787        2.36592       -4.11603
H          2.25088        1.10057       -5.33680
H          5.21653        0.41800       -3.11633
H          4.73007        0.60837       -4.80257
H          4.65482        1.97766       -3.70524
H          4.77481        0.52269        2.25079
H          5.05635        1.93297        3.27033
H          3.43095        1.29819        3.08711
H          6.02342        1.82242        0.37604
H          5.50165        3.45248       -0.03057
H          6.20577        3.13167        1.54601
H          2.50874        3.49855        2.24711
H          3.31695        4.38362        0.95988
H          4.08864        4.22289        2.53499
H          3.60766        4.25152       -1.16477
H          4.84413        4.34054       -2.43751
H          3.25315        3.63035       -2.78310
