111
-148.55033746
P         -2.48984        2.08248        0.49974
P          0.10692        0.27441        0.59693
C         -1.72995        1.68474        2.09584
C         -0.58443        0.91971        2.13080
C         -2.89015        3.88667        0.39036
C         -2.07745        4.56544       -0.69045
C         -2.27819        2.15752        3.27088
H         -3.16447        2.76971        3.23647
C         -1.68321        1.84827        4.48183
H         -2.11190        2.21499        5.40019
C         -0.54068        1.07188        4.51458
H         -0.07839        0.82964        5.45733
C          0.01058        0.60577        3.33444
H          0.90070       -0.00312        3.34256
Pd        -1.11446        1.20665       -1.13847
Cl        -2.50152        2.03533       -2.69261
Cl         0.33892        0.31620       -2.59910
C         -4.41493        3.90525        0.14404
C         -4.16747        1.35647        0.21354
H         -2.28294        5.63769       -0.73295
H         -1.00554        4.43222       -0.52503
H         -2.31376        4.14782       -1.66995
H         -4.66127        4.71744       -0.55495
H         -4.94199        4.15224        1.07721
H         -4.04078        0.54259       -0.51359
C         -4.93872        2.54428       -0.39722
C         -4.77643        0.83800        1.49831
H         -2.64511        4.31509        1.37185
H         -6.01362        2.43153       -0.19241
H         -4.83995        2.52673       -1.49274
H         -4.12644        0.10508        1.97901
H         -4.93168        1.65305        2.20704
H         -5.74688        0.36800        1.32171
C         -1.38898       -3.92811       -0.28407
C         -0.14540       -3.50596       -0.82033
C          0.29850       -2.22934       -0.51824
C         -0.40517       -1.42028        0.33443
C         -1.55476       -1.86130        0.93687
C         -2.04759       -3.13196        0.68833
O         -2.00263       -5.11592       -0.76287
C          0.68740       -4.37535       -1.77435
H          1.18393       -1.82991       -0.98169
H         -2.07626       -1.18709        1.59349
C         -3.30362       -3.60414        1.43672
C          4.60443        0.92380        0.27294
C          4.10910       -0.21207        0.96273
C          2.73649       -0.37317        1.06400
C          1.87575        0.50889        0.46360
C          2.35072        1.55449       -0.28392
C          3.71094        1.76321       -0.43968
O          5.98901        1.23736        0.32131
C          5.03943       -1.24453        1.61920
H          2.31710       -1.19563        1.61717
H          1.63753        2.20775       -0.75666
C          4.19064        2.88849       -1.37025
C          0.29258       -4.05054       -3.22307
C          2.19454       -4.08771       -1.59318
C          0.48394       -5.87483       -1.49101
C         -4.55269       -3.13935        0.67268
C         -3.31989       -5.13561        1.59504
C         -3.33834       -3.00941        2.86292
C         -2.86542       -4.90567       -1.87409
H          0.87572       -4.64085       -3.92929
H         -0.76051       -4.25771       -3.39931
H          0.46308       -2.99645       -3.44106
H          2.45695       -3.07920       -1.90865
H          2.48448       -4.20921       -0.55031
H          2.79415       -4.77541       -2.18908
H          1.12937       -6.48411       -2.12324
H          0.71414       -6.10333       -0.45092
H         -0.54219       -6.17960       -1.67960
H         -4.58344       -3.56631       -0.32722
H         -5.46268       -3.43575        1.19367
H         -4.56056       -2.05493        0.56886
H         -3.37999       -5.63439        0.63115
H         -2.41383       -5.47947        2.09279
H         -4.17592       -5.45926        2.18663
H         -2.41340       -3.22893        3.39551
H         -3.47527       -1.93013        2.85045
H         -4.16360       -3.42966        3.43733
H         -2.89514       -3.84730       -2.13646
H         -2.50959       -5.48068       -2.72883
H         -3.87077       -5.24664       -1.62738
C          6.35010        2.10885        1.38540
C          5.34919       -0.80664        3.05856
C          4.37074       -2.63653        1.66059
C          6.34565       -1.40121        0.81908
C          3.18104        3.10770       -2.52098
C          4.31581        4.19416       -0.57110
C          5.53942        2.53216       -2.02137
H          5.99987       -1.52654        3.55435
H          5.84337        0.16168        3.07803
H          4.43218       -0.72250        3.64134
H          3.51380       -2.65431        2.33223
H          4.03695       -2.93162        0.66686
H          5.07121       -3.39208        2.01576
H          6.92233       -0.47961        0.81604
H          6.97526       -2.18183        1.24534
H          6.13185       -1.66513       -0.21614
H          3.57962        3.80337       -3.25895
H          2.96288        2.16867       -3.02905
H          2.24283        3.52723       -2.16115
H          4.64357        5.01330       -1.21067
H          3.35726        4.47085       -0.13267
H          5.03329        4.09325        0.23967
H          6.32662        2.43687       -1.27774
H          5.84743        3.29993       -2.73067
H          5.46849        1.58530       -2.55563
H          5.47391        2.36380        1.98286
H          7.09314        1.62367        2.01812
H          6.79150        3.01898        0.97977
