171
-217.84401017
P         -1.64942        0.38961       -0.38334
P          1.60245       -0.37829       -0.30172
C         -0.89156        1.35586       -1.69046
C          0.91109       -1.35112       -1.63843
C         -0.06119        0.73963       -2.62049
C          0.59829        1.54227       -3.57169
C          0.37451        2.90913       -3.57710
C         -0.47688        3.49531       -2.66443
C         -1.10408        2.71249       -1.71562
C          1.13169       -2.70663       -1.65047
C          0.56614       -3.49205       -2.63505
C         -0.23241       -2.90931       -3.59640
C         -0.46655       -1.54366       -3.60021
C          0.13135       -0.73857       -2.61244
Cl         1.44069        0.46044        2.90722
Cl        -1.63683       -0.45174        2.83317
C         -1.32354       -0.94516       -4.65912
C          1.54026        0.95611       -4.56478
H         -0.64690        4.55937       -2.68531
H         -1.76425        3.16216       -0.99189
H          1.75094       -3.15242       -0.88909
H          0.74610       -4.55460       -2.64851
H          0.88123        3.51695       -4.30772
H         -0.68426       -3.51906       -4.36052
C         -3.97331       -3.19593       -1.85654
C         -2.93736       -3.39221       -0.95150
C         -2.23148       -2.27657       -0.51927
C         -2.54683       -1.02980       -0.99777
C         -3.56800       -0.85192       -1.89849
C         -4.31108       -1.93840       -2.34389
H         -4.53850       -4.05141       -2.17481
H         -1.43427       -2.36757        0.19813
H         -3.79694        0.14431       -2.23918
C         -4.27065        2.77395        2.45149
C         -4.82874        1.70721        1.75852
C         -4.01744        1.01514        0.86783
C         -2.71031        1.38979        0.67609
C         -2.17642        2.44726        1.37078
C         -2.94570        3.15691        2.28317
H         -4.88617        3.30444        3.15326
H         -4.39211        0.15944        0.33497
H         -1.14046        2.70163        1.22258
C          4.30025       -2.82113        2.41522
C          2.95151       -3.15108        2.34018
C          2.14868       -2.41732        1.47697
C          2.67227       -1.38125        0.74444
C          4.00252       -1.05953        0.84413
C          4.84787       -1.77753        1.67799
H          4.93751       -3.38559        3.06806
H          1.10014       -2.64535        1.38643
H          4.38590       -0.23134        0.27449
C          3.98231        3.19927       -1.69445
C          2.93967        3.40262       -0.79923
C          2.20931        2.29387       -0.38963
C          2.50542        1.04981       -0.88721
C          3.52674        0.86674       -1.78679
C          4.29508        1.94636       -2.20622
H          4.58340        4.04089       -1.98520
H          1.41213        2.38633        0.32743
H          3.72685       -0.12977       -2.14304
Pd        -0.05845       -0.02492        1.29186
C         -2.38997       -5.75384       -1.61218
C         -2.63406       -4.80185       -0.42617
C         -3.83285       -5.29846        0.40119
C         -1.38045       -4.81245        0.46932
H         -1.57360       -5.39074       -2.23520
H         -2.12903       -6.75262       -1.26269
H         -3.27510       -5.84382       -2.24042
H         -3.64536       -6.29465        0.80149
H         -4.02563       -4.62803        1.23859
H         -4.73723       -5.34512       -0.20458
H         -1.15606       -5.82348        0.80890
H         -0.51224       -4.44345       -0.07542
H         -1.52334       -4.19291        1.35434
C         -6.54034       -0.82548       -2.59495
C         -5.49579       -1.71223       -3.29610
C         -6.17035       -3.03954       -3.69375
C         -5.00875       -1.01511       -4.57909
H         -6.12121        0.14604       -2.33539
H         -7.40370       -0.65531       -3.23793
H         -6.89113       -1.29874       -1.67816
H         -5.46477       -3.70337       -4.19316
H         -6.57214       -3.55348       -2.82071
H         -6.99843       -2.86162       -4.37980
H         -5.84100       -0.82002       -5.25526
H         -4.53063       -0.06184       -4.35755
H         -4.29079       -1.64079       -5.10724
C         -7.21391        2.49252        1.75730
C         -6.28284        1.29661        2.03028
C         -6.41497        0.85685        3.49962
C         -6.71969        0.12656        1.12813
H         -7.10898        2.83406        0.72764
H         -8.25668        2.21888        1.91733
H         -6.98674        3.33178        2.41341
H         -7.43305        0.53788        3.72217
H         -5.74488        0.02405        3.71232
H         -6.16299        1.66981        4.17959
H         -7.75733       -0.14563        1.32081
H         -6.63892        0.39899        0.07675
H         -6.10888       -0.75842        1.30578
C         -3.25358        4.84333        4.16630
C         -2.30963        4.31020        3.07120
C         -1.98358        5.45801        2.10058
C         -1.01772        3.81307        3.75033
H         -2.77181        5.63546        4.73938
H         -4.16366        5.25914        3.73457
H         -3.53031        4.05173        4.86247
H         -1.31961        5.12152        1.30648
H         -2.89230        5.83703        1.63330
H         -1.49867        6.28475        2.61935
H         -0.28017        3.48618        3.01946
H         -0.56251        4.60180        4.34883
H         -1.22944        2.96929        4.40668
C          1.07179       -3.76962        3.88865
C          2.32860       -4.28897        3.16107
C          3.30779       -4.83045        4.22054
C          1.94326       -5.43559        2.21112
H          1.31803       -2.91466        4.51791
H          0.30192       -3.45439        3.18607
H          0.64049       -4.54361        4.52305
H          4.18758       -5.27423        3.75528
H          3.63398       -4.03644        4.89210
H          2.83381       -5.60331        4.82554
H          2.82377       -5.82659        1.70162
H          1.47411       -6.25503        2.75535
H          1.24489       -5.09264        1.44966
C          6.96676       -1.55481        0.36020
C          6.33052       -1.38632        1.75243
C          7.10361       -2.26341        2.75552
C          6.44517        0.08383        2.19884
H          6.47480       -0.92225       -0.37754
H          8.02317       -1.28754        0.37810
H          6.88453       -2.58744        0.02167
H          6.69097       -2.16681        3.75959
H          7.06990       -3.31364        2.46636
H          8.15178       -1.96775        2.79965
H          7.48892        0.38460        2.28749
H          5.96592        0.75430        1.48636
H          5.96741        0.22950        3.16740
C          3.84606        5.27211        0.59716
C          2.65593        4.81153       -0.26262
C          1.38272        4.83599        0.60281
C          2.45743        5.78280       -1.44169
H          3.67065        6.26697        1.00614
H          4.00623        4.58729        1.42977
H          4.76437        5.30703        0.01186
H          1.49673        4.20779        1.48564
H          1.16536        5.84770        0.94496
H          0.52344        4.48312        0.03352
H          2.21173        6.78302       -1.08532
H          3.35693        5.86018       -2.05091
H          1.64577        5.44540       -2.08521
C          5.41064        2.77189       -4.30899
C          5.50507        1.77716       -3.13591
C          5.57928        0.35071       -3.71531
C          6.78907        2.04955       -2.33162
H          4.49000        2.62330       -4.87171
H          5.42729        3.80365       -3.96076
H          6.24737        2.64282       -4.99537
H          5.71732       -0.38862       -2.92681
H          4.67159        0.10337       -4.26522
H          6.41980        0.25578       -4.40264
H          6.79643        3.06487       -1.93629
H          6.86900        1.36350       -1.48871
H          7.67471        1.92501       -2.95442
H         -2.04738       -1.67096       -5.03070
H          1.77755       -0.08222       -4.32982
H         -0.72281       -0.61150       -5.50595
H         -1.87757       -0.08621       -4.27779
H          2.47836        1.51129       -4.57811
H          1.11809        0.98829       -5.57016
