171
-217.84814228
P         -1.62067        0.48372       -0.27768
P          1.58306       -0.34791       -0.31758
C         -0.88342        1.46241       -1.59562
C          0.84033       -1.25855       -1.67309
C         -0.09384        0.87578       -2.57941
C          0.54930        1.70770       -3.51613
C          0.35659        3.07755       -3.45216
C         -0.44669        3.63809       -2.48233
C         -1.05888        2.82436       -1.54989
C          1.02228       -2.61868       -1.71896
C          0.44383       -3.36093       -2.73025
C         -0.32513       -2.73065       -3.68595
C         -0.52367       -1.36001       -3.65429
C          0.08030       -0.60131       -2.63325
Cl         1.63770        0.65690        2.83003
Cl        -1.50645       -0.11164        2.97089
C         -1.34702       -0.71049       -4.71114
C          1.43981        1.14952       -4.57055
H         -0.59104        4.70551       -2.44614
H         -1.67720        3.25586       -0.77977
H          1.62045       -3.09979       -0.96147
H          0.59441       -4.42714       -2.77350
H          0.85055        3.70777       -4.17248
H         -0.78216       -3.30632       -4.47307
C         -3.60096       -3.40888       -1.45618
C         -2.66933       -3.41154       -0.42526
C         -2.05709       -2.20797       -0.10398
C         -2.36252       -1.06222       -0.79556
C         -3.28847       -1.07387       -1.80970
C         -3.93370       -2.25552       -2.15663
H         -4.09954       -4.32394       -1.71470
H         -1.35297       -2.15754        0.70872
H         -3.51240       -0.14942       -2.31418
C         -4.65351        2.84532        2.12704
C         -5.09459        1.79915        1.32698
C         -4.14488        1.10388        0.59018
C         -2.81805        1.45065        0.65387
C         -2.39979        2.48796        1.45038
C         -3.31506        3.20919        2.20660
H         -5.37208        3.38234        2.71855
H         -4.43179        0.27212       -0.02784
H         -1.34826        2.71322        1.49724
C          4.21397       -3.11337        2.14240
C          2.84299       -3.12716        2.36396
C          2.05225       -2.29358        1.58370
C          2.62184       -1.44985        0.66132
C          3.98225       -1.43189        0.47624
C          4.80855       -2.27295        1.21035
H          4.83849       -3.77495        2.71385
H          0.98389       -2.28395        1.70655
H          4.39714       -0.74954       -0.24294
C          3.99449        3.22700       -1.68019
C          3.01213        3.40561       -0.71456
C          2.29086        2.28992       -0.31051
C          2.52739        1.06481       -0.88171
C          3.48222        0.90974       -1.85695
C          4.24649        1.99493       -2.27106
H          4.59511        4.07045       -1.96630
H          1.54372        2.36519        0.46003
H          3.62499       -0.06583       -2.28946
Pd         0.02349        0.19556        1.34253
C         -3.13399       -5.89300       -0.08570
C         -2.33006       -4.66756        0.38905
C         -2.66391       -4.41002        1.87077
C         -0.83121       -4.98240        0.23739
H         -2.91971       -6.12222       -1.12943
H         -2.87958       -6.77353        0.50419
H         -4.20556       -5.72410        0.01912
H         -2.42278       -5.27882        2.48294
H         -2.10764       -3.55965        2.26225
H         -3.72508       -4.19424        1.99296
H         -0.54967       -5.84527        0.84052
H         -0.59031       -5.20549       -0.80110
H         -0.21593       -4.13954        0.54686
C         -6.35512       -2.73708       -2.57901
C         -5.02760       -2.30977       -3.23278
C         -4.63407       -3.33103       -4.31625
C         -5.23817       -0.93735       -3.90168
H         -6.27478       -3.72609       -2.12939
H         -6.64135       -2.03629       -1.79519
H         -7.15956       -2.76878       -3.31364
H         -4.54343       -4.33429       -3.90181
H         -5.38142       -3.36564       -5.10876
H         -3.67750       -3.06992       -4.76650
H         -4.32525       -0.58773       -4.38159
H         -6.01166       -0.99519       -4.66737
H         -5.55225       -0.19005       -3.17327
C         -6.85566        0.25467        0.33170
C         -6.58300        1.42434        1.29880
C         -7.40707        2.64000        0.83667
C         -7.02431        1.00209        2.71196
H         -7.91648        0.00511        0.31507
H         -6.56101        0.51102       -0.68575
H         -6.31209       -0.64025        0.63436
H         -7.08928        2.96585       -0.15361
H         -8.46812        2.39585        0.78744
H         -7.29052        3.48097        1.51919
H         -8.07405        0.70929        2.72222
H         -6.43352        0.15565        3.06168
H         -6.89751        1.81538        3.42555
C         -3.65042        5.62807        2.79284
C         -2.88238        4.34148        3.14813
C         -1.37308        4.63008        3.03177
C         -3.19117        3.93145        4.59916
H         -3.33959        6.45585        3.43003
H         -3.46594        5.91203        1.75688
H         -4.72457        5.49823        2.91848
H         -0.78252        3.75737        3.31011
H         -1.11083        4.91751        2.01417
H         -1.08240        5.44726        3.69171
H         -2.87945        4.70628        5.29927
H         -4.25738        3.75960        4.74228
H         -2.66695        3.01124        4.85668
C          0.76138       -3.71140        3.70379
C          2.24399       -4.04254        3.44143
C          3.01073       -3.85625        4.76543
C          2.35504       -5.50407        2.97597
H          0.36432       -4.32234        4.51422
H          0.63780       -2.66519        3.98360
H          0.15397       -3.90636        2.82251
H          4.05325       -4.15658        4.67138
H          2.98786       -2.81229        5.07753
H          2.56640       -4.45545        5.56000
H          1.92853       -6.18310        3.71407
H          1.82469       -5.65004        2.03522
H          3.39566       -5.78690        2.81956
C          7.01059       -1.93690        2.36245
C          6.33256       -2.28823        1.02532
C          6.78600       -1.26399       -0.03362
C          6.77483       -3.69060        0.56948
H          6.76550       -2.66476        3.13493
H          8.09510       -1.91613        2.25645
H          6.68624       -0.95673        2.71146
H          7.86943       -1.28159       -0.15099
H          6.34590       -1.48426       -1.00590
H          6.50173       -0.25217        0.25476
H          6.51908       -4.44683        1.31075
H          6.28773       -3.96189       -0.36700
H          7.85275       -3.72811        0.41285
C          4.00614        5.18164        0.74096
C          2.77740        4.79101       -0.09820
C          1.53289        4.79920        0.81115
C          2.56111        5.82572       -1.21891
H          3.86925        6.15919        1.20294
H          4.17706        4.45346        1.53366
H          4.90464        5.22328        0.12602
H          1.66131        4.13031        1.66183
H          1.34771        5.79828        1.20532
H          0.64627        4.48975        0.25831
H          1.72333        5.53670       -1.85245
H          2.34599        6.81021       -0.80380
H          3.44247        5.91947       -1.85181
C          6.73030        2.03375       -2.54960
C          5.39081        1.85153       -3.28554
C          5.26064        2.92351       -4.38534
C          5.38292        0.46429       -3.95753
H          6.79207        3.01760       -2.08540
H          6.84329        1.28692       -1.76444
H          7.57079        1.93230       -3.23593
H          4.30111        2.84614       -4.89440
H          5.34166        3.92920       -3.97544
H          6.04593        2.80956       -5.13249
H          5.54552       -0.32840       -3.22791
H          4.43608        0.27812       -4.46334
H          6.17615        0.39063       -4.70136
H         -1.78517        0.22287       -4.35479
H          0.96930        1.21230       -5.55272
H         -2.16325       -1.36028       -5.02673
H         -0.74398       -0.48668       -5.59190
H          1.68561        0.10454       -4.37761
H          2.37694        1.70406       -4.61400
