111
-148.55562145
P         -1.72879        2.74954        0.04739
P         -0.41959       -0.08424        0.56175
C         -1.61957        2.09572        1.73774
C         -1.11817        0.82874        1.94916
C         -0.68587        4.26214       -0.15503
C          0.41961        4.00769       -1.15841
C         -2.01715        2.86463        2.81276
H         -2.37755        3.86643        2.64551
C         -1.93246        2.35155        4.09566
H         -2.24664        2.95016        4.93505
C         -1.44150        1.07643        4.30240
H         -1.37076        0.67964        5.30175
C         -1.02288        0.31560        3.22541
H         -0.60494       -0.66838        3.37006
Pd        -1.23725        0.95787       -1.32640
Cl        -2.21905        2.08792       -2.99495
Cl        -0.66018       -0.86329       -2.50709
C         -1.69692        5.34177       -0.59323
C         -3.39727        3.45104       -0.34244
H          1.03730        4.89643       -1.30811
H          1.07093        3.19114       -0.83858
H          0.00134        3.72794       -2.12755
H         -1.62658        5.46622       -1.68248
H         -1.42140        6.31891       -0.16875
H         -3.59525        3.19147       -1.39053
C         -3.15845        4.96622       -0.21505
C         -4.48596        2.89369        0.54995
H         -0.27824        4.48814        0.83900
H         -3.36383        5.27331        0.81960
H         -3.88002        5.52016       -0.83499
H         -4.54056        1.80523        0.47383
H         -4.30151        3.13891        1.59628
H         -5.46446        3.30146        0.28628
C         -1.00523       -4.59664        0.62886
C          0.19927       -4.04106        1.13148
C          0.35276       -2.66468        1.09605
C         -0.65826       -1.85336        0.65145
C         -1.86299       -2.37812        0.26421
C         -2.08305       -3.74587        0.27398
O         -1.11707       -6.00153        0.45112
C          1.34376       -4.91135        1.67446
H          1.27654       -2.20440        1.40115
H         -2.62848       -1.69861       -0.07021
C         -3.46236       -4.27978       -0.14304
C          3.86081        1.30624       -0.12109
C          3.37783        0.16329       -0.80876
C          2.07070       -0.23399       -0.58250
C          1.29279        0.39760        0.35071
C          1.78848        1.43832        1.09269
C          3.08344        1.89297        0.91023
O          5.09847        1.89391       -0.49509
C          4.22446       -0.62251       -1.82131
H          1.62444       -1.02174       -1.16434
H          1.13901        1.90865        1.80957
C          3.61625        3.02461        1.80349
C          2.17693       -4.13252        2.71756
C          0.79576       -6.16451        2.38116
C          2.26954       -5.31789        0.51808
C         -3.79450       -5.59662        0.58192
C         -4.57304       -3.27130        0.22999
C         -3.48347       -4.48893       -1.66506
C         -0.71227       -6.45888       -0.83332
H          1.53591       -3.71913        3.49582
H          2.90538       -4.78630        3.19670
H          2.73356       -3.31594        2.25982
H          0.10719       -5.88547        3.17800
H          0.26006       -6.80835        1.68789
H          1.60241       -6.75151        2.81957
H          3.10577       -5.91623        0.87888
H          1.73726       -5.90176       -0.22829
H          2.67390       -4.43681        0.02159
H         -3.74136       -5.46357        1.66193
H         -4.79805       -5.93948        0.33126
H         -3.10026       -6.38729        0.30972
H         -4.50977       -2.99695        1.28268
H         -4.51025       -2.36243       -0.36648
H         -5.55942       -3.70015        0.05461
H         -4.45467       -4.85574       -1.99601
H         -3.28055       -3.55260       -2.18448
H         -2.72874       -5.20724       -1.97556
H         -1.55602       -6.92720       -1.33958
H         -0.34341       -5.62676       -1.43446
H          0.07333       -7.20625       -0.72305
C          4.98522        2.86657       -1.52661
C          5.72371       -0.54506       -1.48026
C          3.83888       -2.11908       -1.79802
C          3.97014       -0.06746       -3.23083
C          2.92999        2.99598        3.18820
C          5.12845        2.86735        2.04536
C          3.32653        4.38194        1.14547
H          6.09653        0.47323       -1.55300
H          5.90418       -0.89427       -0.46414
H          6.31252       -1.16039       -2.16009
H          4.51207       -2.70255       -2.42562
H          3.89895       -2.51438       -0.78460
H          2.82962       -2.28438       -2.17160
H          4.54968       -0.61198       -3.97576
H          2.91602       -0.15344       -3.49377
H          4.24163        0.98382       -3.29481
H          1.87510        3.25857        3.12086
H          3.00982        2.00776        3.64034
H          3.39492        3.71245        3.86501
H          5.68912        2.95950        1.11828
H          5.49734        3.63000        2.73075
H          5.34910        1.89035        2.47399
H          3.78454        4.45024        0.16183
H          3.71163        5.20016        1.75345
H          2.25437        4.53058        1.02506
H          5.40775        3.81115       -1.18422
H          5.54500        2.54073       -2.40300
H          3.93910        3.01269       -1.79890
