72
-108.39050476
Cl        -2.07153       -0.30873        2.76893
Cl         1.04037       -0.68001        2.75939
P          1.22114       -0.99829       -0.29876
P         -2.24196        0.13499       -0.37293
C         -3.44021       -1.33493       -0.38618
C         -4.22296       -1.40529        0.92238
C         -4.42204       -1.21147       -1.56016
C         -3.11835        1.78254       -0.00012
C         -4.50338        1.81005       -0.63744
C         -1.43463        0.39513       -2.05834
C         -1.32702       -0.82288       -2.96037
C          1.14520        0.34127       -1.52636
C         -0.06312        1.04870       -1.96084
C          0.38106        2.17163       -2.79031
C          1.82873        2.13507       -2.87520
C          2.29934        0.98558       -2.12568
C         -2.60261       -2.60510       -0.51173
H         -3.55746       -1.55526        1.77068
H         -4.80327       -0.50247        1.09957
H         -4.80672       -2.19118       -1.84869
H         -3.96454       -0.75737       -2.43640
C         -3.22816        1.97472        1.50668
H         -4.94704        2.80269       -0.54472
H         -5.18318        1.11256       -0.15233
H         -2.11465        1.10677       -2.54103
H         -0.62786       -1.54233       -2.54299
H         -0.93224       -0.54433       -3.93944
H         -2.27490       -1.32923       -3.12938
H         -0.27337        2.84712       -3.34443
H          2.45372        2.81974       -3.45311
Pd        -0.52717       -0.44883        1.14693
H          3.33718        0.68307       -1.97021
C         -2.28581        2.91518       -0.59778
H         -4.45132        1.57083       -1.69997
H         -3.82065        1.18590        1.96783
H         -2.24432        1.96733        1.97470
H         -3.70340        2.92757        1.74506
H         -2.36061        2.94204       -1.68487
H         -2.62260        3.88541       -0.22831
H         -1.23800        2.80109       -0.33814
H         -4.92101       -2.24372        0.90578
H         -5.28633       -0.60241       -1.29784
H         -1.90268       -2.69255        0.31959
H         -3.23957       -3.49133       -0.49560
H         -2.03221       -2.63361       -1.43668
C          2.90946       -1.06892        0.34557
C          3.37900       -2.07509        1.15215
C          4.70983       -1.77674        1.44561
C          4.99844       -0.59879        0.80149
O          3.90195       -0.15369        0.12091
H          2.81532       -2.92645        1.49765
H          5.37912       -2.35654        2.06001
H          5.95122       -0.08423        0.82116
C          0.80711       -2.63210       -0.93503
C          0.52855       -3.68803       -0.10337
C          0.25228       -4.78734       -0.91780
C          0.37594       -4.35436       -2.21542
O          0.71432       -3.03135       -2.24055
H          0.51972       -3.65871        0.97491
H         -0.00648       -5.78141       -0.59164
H          0.22889       -4.96016       -3.10097
Fe         1.25511        2.24285       -0.92276
C          2.91332        2.64622        0.19662
C          1.90496        2.01278        1.01987
C          0.71636        2.83712        0.96405
C          0.99921        4.00719        0.15169
C          2.35765        3.87563       -0.34115
H          3.92553        2.26852        0.03511
H          2.01154        1.08407        1.58294
H         -0.18375        2.67104        1.55847
H          0.32016        4.84004       -0.04309
H          2.88289        4.59339       -0.97536
