105
-153.07093376
Cl         0.43560        1.94992        3.07024
Pd        -0.33190        1.42789        1.01734
P         -1.20239        0.73375       -1.01681
N         -0.23858       -0.40849       -1.93709
C          0.31516       -1.65550       -1.68371
C          0.23941       -2.32154       -0.43577
C          0.94487       -3.52766       -0.24754
C          0.85110       -4.21627        1.09415
C          1.38103       -5.65875        1.11023
C          2.69297       -5.77260        0.32839
C          2.49231       -5.34506       -1.13338
C          1.70028       -4.07149       -1.28824
C          1.72101       -3.42732       -2.51800
C          1.04496       -2.25098       -2.71242
H          1.10030       -1.75048       -3.66355
H          2.29537       -3.85637       -3.32161
H          3.46360       -5.22006       -1.62914
H          3.44978       -5.13050        0.79604
H          1.51124       -6.01538        2.14174
H          1.39793       -3.61385        1.82898
C         -0.70297       -1.89730        0.62675
C         -0.21178       -1.30711        1.82423
C         -1.09953       -1.13343        2.89089
C         -2.41417       -1.50796        2.78380
C         -2.90483       -2.10861        1.63022
C         -4.34648       -2.55986        1.62388
C         -4.82171       -3.20077        0.30808
C         -3.70657       -4.00971       -0.36015
C         -2.49256       -3.11547       -0.64801
C         -2.04098       -2.32533        0.55516
H         -1.65809       -3.72470       -1.01671
H         -4.06780       -4.49002       -1.28058
H         -5.15040       -2.41558       -0.38157
H         -4.98034       -1.70020        1.87576
H         -3.08444       -1.35051        3.61182
H         -0.74201       -0.66426        3.79051
N          1.10855       -0.85378        1.94811
P          1.72089        0.21969        0.68243
C          2.91822       -0.65542       -0.32812
C          3.24763       -0.21979       -1.58917
C          4.21180       -0.89549       -2.31470
C          4.86525       -1.99460       -1.77274
C          4.53156       -2.40553       -0.48955
C          3.56337       -1.73114        0.23219
H          3.29727       -2.04183        1.22990
H          5.02905       -3.25903       -0.06204
C          5.87071       -2.74777       -2.57172
H          4.46065       -0.57415       -3.31166
H          2.75016        0.64088       -2.00312
C          2.67425        1.58312        1.36294
C          3.48512        1.37658        2.45235
C          4.22507        2.42731        2.96408
C          4.16497        3.68523        2.37907
C          3.34217        3.87066        1.27616
C          2.60396        2.81933        0.76464
H          1.96703        2.96024       -0.09428
H          3.27924        4.84513        0.82276
C          4.93471        4.82460        2.95065
H          4.85212        2.27662        3.82614
H          3.53649        0.39669        2.89911
H          1.32931       -0.39574        2.82312
H         -0.26125       -0.10000       -2.90145
C         -1.00434        2.31529       -1.84390
C         -2.05855        3.18696       -1.97753
C         -1.85790        4.41989       -2.57061
C         -0.60078        4.78668       -3.03295
C          0.45413        3.89762       -2.87617
C          0.24978        2.66428       -2.28464
H          1.06368        1.96993       -2.15824
H          1.43653        4.17832       -3.21570
C         -0.37843        6.12763       -3.64109
H         -2.67786        5.11041       -2.67023
H         -3.02995        2.90626       -1.60425
C         -2.93578        0.30096       -1.18369
C         -3.35359       -0.24777       -2.37315
C         -4.69384       -0.53096       -2.56968
C         -5.62721       -0.24919       -1.58179
C         -5.18696        0.30812       -0.38882
C         -3.84755        0.58854       -0.19635
H         -3.51284        1.06596        0.70835
H         -5.90102        0.53044        0.38563
C         -7.06657       -0.56989       -1.79046
H         -5.02367       -0.97047       -3.49546
H         -2.62855       -0.45130       -3.14500
Cl        -2.14781        2.70804        1.32840
H          1.98150       -6.14295       -1.68547
H          0.63381       -6.32531        0.66146
H          3.09550       -6.79383        0.38695
H         -0.19429       -4.20057        1.42710
H         -3.40437       -4.82976        0.30329
H         -2.72525       -2.42133       -1.46118
H         -4.48421       -3.27223        2.44622
H         -5.70815       -3.82802        0.47774
H          6.41451       -2.08458       -3.24588
H          6.60213       -3.23581       -1.92605
H          5.38708       -3.51792       -3.17428
H          5.20125        5.54712        2.17801
H          4.34876        5.34433        3.70985
H          5.85980        4.48117        3.41573
H         -0.12562        6.86235       -2.87545
H          0.43712        6.10167       -4.36516
H         -1.27144        6.47700       -4.16121
H         -7.38140       -0.31248       -2.80272
H         -7.25402       -1.63402       -1.64046
H         -7.70029       -0.01649       -1.09615
