111
-148.54731494
P         -1.37692        2.60130        1.27752
P         -0.30018       -0.27532        0.55129
C         -0.83442        1.48295        2.60489
C         -0.44643        0.19781        2.28632
C         -0.22516        4.02867        1.06302
C          0.35819        4.03436       -0.33404
C         -0.76556        1.91106        3.91558
H         -1.00872        2.93188        4.15630
C         -0.34594        1.04092        4.90677
H         -0.29786        1.37578        5.93013
C          0.02051       -0.25182        4.58607
H          0.35350       -0.92713        5.35695
C         -0.01657       -0.67044        3.26840
H          0.30907       -1.66161        2.99381
Pd        -1.63161        1.23893       -0.57721
Cl        -3.17215        2.64788       -1.38978
Cl        -1.60996       -0.17011       -2.33077
C         -1.11667        5.24907        1.37749
C         -2.97636        3.49451        1.57386
H         -0.43564        4.09764       -1.08118
H          1.02710        4.88475       -0.48632
H          0.92553        3.12246       -0.53314
H         -0.80428        6.10045        0.75534
H         -0.95788        5.56995        2.41759
H         -3.70553        3.05163        0.88223
C         -2.62567        4.93911        1.16091
C         -3.48139        3.37379        2.99596
H          0.56757        3.91128        1.81377
H         -3.25263        5.64620        1.72377
H         -2.87934        5.09472        0.10179
H         -4.46871        3.82773        3.10810
H         -3.55411        2.32891        3.30548
H         -2.81359        3.88574        3.68933
C         -0.93544       -4.72008       -0.22667
C         -1.76601       -4.03945        0.69966
C         -1.52898       -2.69373        0.93010
C         -0.55159       -2.02022        0.24421
C          0.18460       -2.65036       -0.72443
C         -0.01321       -3.98906       -1.01788
O         -1.00707       -6.13422       -0.33972
C         -2.89273       -4.74812        1.46780
H         -2.10475       -2.14890        1.65843
H          0.92144       -2.07649       -1.25774
C          0.76776       -4.62071       -2.18116
C          3.62948        1.46239       -0.98335
C          3.36292        1.42423        0.40897
C          2.18524        0.83491        0.83604
C          1.26780        0.35303       -0.06102
C          1.47436        0.48630       -1.40917
C          2.62725        1.06767       -1.90554
O          4.90358        1.88137       -1.45116
C          4.33095        2.00848        1.44983
H          1.96106        0.75606        1.88500
H          0.68957        0.16786       -2.07163
C          2.76484        1.28222       -3.42133
C         -3.53379       -5.85522        0.61112
C         -2.32656       -5.34375        2.76564
C         -4.01762       -3.75324        1.83284
C          1.05856       -3.56564       -3.27330
C          2.10474       -5.16980       -1.66150
C         -0.04570       -5.74395       -2.84942
C         -0.09969       -6.83128        0.50452
H         -4.37463       -6.31500        1.12981
H         -3.89785       -5.44807       -0.33157
H         -2.81974       -6.64214        0.38093
H         -1.54669       -6.07213        2.55746
H         -1.89300       -4.56327        3.39059
H         -3.10734       -5.84177        3.33994
H         -4.36249       -3.21691        0.94918
H         -4.87230       -4.27614        2.26147
H         -3.68665       -3.02414        2.57096
H          0.14354       -3.05486       -3.57236
H          1.77141       -2.81828       -2.92920
H          1.48740       -4.03251       -4.15967
H          2.68539       -5.61275       -2.47028
H          2.70039       -4.37389       -1.21497
H          1.94988       -5.93257       -0.90225
H         -0.22716       -6.56608       -2.16170
H         -1.01251       -5.36933       -3.18401
H          0.47995       -6.14758       -3.71441
H          0.57753       -7.43209       -0.10216
H          0.47705       -6.12822        1.10682
H         -0.65422       -7.50246        1.16015
C          5.84005        0.82431       -1.61557
C          5.35672        0.93741        1.84922
C          5.04863        3.25217        0.89475
C          3.57020        2.45660        2.71888
C          3.57529        2.55513       -3.72599
C          3.44328        0.05728       -4.05217
C          1.37590        1.46636       -4.07553
H          5.93671        0.60750        0.99095
H          6.05061        1.32081        2.59689
H          4.85766        0.06374        2.26786
H          5.68810        3.70616        1.65133
H          5.67510        3.00068        0.04240
H          4.32502        3.99894        0.56929
H          4.23615        2.98115        3.40365
H          2.75487        3.13243        2.46397
H          3.15691        1.60854        3.26296
H          3.61988        2.74429       -4.79820
H          3.12154        3.42220       -3.24699
H          4.59705        2.47095       -3.36418
H          2.85390       -0.84181       -3.87653
H          3.55287        0.18312       -5.12901
H          4.43173       -0.10781       -3.63063
H          0.79201        0.54754       -4.04849
H          1.47594        1.74981       -5.12290
H          0.80895        2.24803       -3.57044
H          6.71820        1.01638       -0.99930
H          5.39382       -0.12843       -1.32768
H          6.15986        0.77747       -2.65634
