111
-148.55397568
P         -1.54825        2.84313        0.04058
P         -0.59287       -0.13893        0.42941
C         -1.55704        2.10182        1.69833
C         -1.21975        0.77389        1.85556
C         -0.24204        4.14939       -0.06687
C          0.79379        3.78159       -1.10761
C         -1.87379        2.86534        2.80399
H         -2.09484        3.91278        2.68172
C         -1.88115        2.28860        4.06215
H         -2.13276        2.88404        4.92460
C         -1.56160        0.95323        4.21434
H         -1.56314        0.50491        5.19427
C         -1.21954        0.19656        3.10848
H         -0.93609       -0.83778        3.21622
Pd        -1.46390        1.01813       -1.38165
Cl        -2.66767        2.12241       -2.91151
Cl        -1.00910       -0.77601       -2.65885
C         -1.03451        5.43164       -0.39578
C         -3.05260        3.87227       -0.28950
H          0.32555        3.63791       -2.08359
H          1.54967        4.56340       -1.21227
H          1.30438        2.85155       -0.85134
H         -0.93760        5.63714       -1.47060
H         -0.58467        6.29962        0.10921
H         -3.27185        3.74666       -1.35759
C         -2.54156        5.30119       -0.03419
C         -4.24744        3.45393        0.54044
H          0.20697        4.21439        0.93290
H         -2.69288        5.55125        1.02468
H         -3.14576        6.02932       -0.59691
H         -4.50014        2.40536        0.36766
H         -4.04945        3.57070        1.60606
H         -5.12672        4.05734        0.30394
C         -0.70365       -4.67249        0.83560
C          0.17362       -3.90643        1.64530
C          0.18710       -2.53137        1.47752
C         -0.68632       -1.91483        0.61978
C         -1.60969       -2.64117       -0.08457
C         -1.66630       -4.02096        0.02278
O         -0.59187       -6.08819        0.80805
C          1.12489       -4.54016        2.67274
H          0.89913       -1.91929        2.00483
H         -2.26845       -2.11277       -0.75145
C         -2.72568       -4.78917       -0.78265
C          3.66497        1.30567       -0.29623
C          3.01514        0.50543       -1.27305
C          1.72425        0.07914       -1.01460
C          1.11096        0.35428        0.17792
C          1.77585        1.02466        1.16993
C          3.07117        1.47646        0.98291
O          4.85717        2.00025       -0.62600
C          3.64556        0.09682       -2.61406
H          1.15623       -0.43854       -1.76824
H          1.26259        1.21267        2.09720
C          3.77617        2.13519        2.17979
C          2.47258       -4.84212        2.00011
C          1.36945       -3.57426        3.85501
C          0.52543       -5.82816        3.26599
C         -3.99219       -3.92632       -0.98400
C         -2.15197       -5.14244       -2.16345
C         -3.16630       -6.06700       -0.04592
C          0.33036       -6.57773       -0.15778
H          2.91888       -3.92962        1.60530
H          3.17336       -5.28117        2.70975
H          2.35367       -5.53668        1.17203
H          0.42504       -3.23918        4.28314
H          1.93870       -4.06522        4.64402
H          1.93829       -2.69719        3.54994
H         -0.45026       -5.62876        3.70789
H          0.39592       -6.59366        2.50524
H          1.17112       -6.24023        4.04109
H         -3.80223       -3.07861       -1.64061
H         -4.78974       -4.51130       -1.44145
H         -4.35940       -3.54797       -0.03041
H         -1.86269       -4.23996       -2.70154
H         -1.26938       -5.77116       -2.07486
H         -2.88606       -5.67540       -2.76709
H         -3.96246       -6.57691       -0.58777
H         -2.34206       -6.76747        0.06222
H         -3.53391       -5.82740        0.95127
H         -0.18506       -7.24174       -0.85152
H          0.77754       -5.75042       -0.71034
H          1.11408       -7.14859        0.33985
C          4.61356        3.29026       -1.16307
C          3.39516       -1.40772       -2.86044
C          2.99511        0.90632       -3.74873
C          5.16891        0.30926       -2.63494
C          5.29429        2.26564        1.96755
C          3.16715        3.52557        2.42727
C          3.57032        1.26246        3.43812
H          3.89607       -1.74114       -3.76889
H          3.77463       -2.00164       -2.02945
H          2.33535       -1.62846       -2.97572
H          1.91877        0.73928       -3.77891
H          3.16072        1.97371       -3.61651
H          3.40598        0.62004       -4.71642
H          5.60672       -0.07645       -3.55532
H          5.42092        1.36489       -2.56862
H          5.63933       -0.19988       -1.79451
H          5.78540        2.64253        2.86439
H          5.73188        1.29898        1.72060
H          5.52235        2.95165        1.15547
H          2.09972        3.45186        2.63322
H          3.64004        4.01159        3.28019
H          3.29343        4.17128        1.56036
H          2.52258        1.21196        3.72981
H          4.12344        1.66641        4.28566
H          3.92030        0.24565        3.26189
H          3.99510        3.21398       -2.05574
H          4.09794        3.90984       -0.43147
H          5.56415        3.75666       -1.42247
