111
-148.55771239
P         -2.60164        1.87557        1.04132
P          0.18505        0.51045        0.44114
C         -1.46159        1.53093        2.40645
C         -0.22334        0.99110        2.13322
C         -3.52793        3.45645        1.30218
C         -2.98678        4.56701        0.42848
C         -1.82413        1.79975        3.71080
H         -2.80087        2.20407        3.92022
C         -0.93807        1.53324        4.74039
H         -1.22003        1.74234        5.75941
C          0.30528        0.99775        4.46400
H          0.99406        0.78772        5.26567
C          0.66163        0.72131        3.15650
H          1.62125        0.28657        2.92665
Pd        -1.35482        1.65216       -0.88291
Cl        -3.09806        2.39179       -2.07873
Cl         0.03560        1.27814       -2.60787
C         -4.98301        3.05173        1.00125
C         -4.01137        0.68303        0.91125
H         -3.07040        4.30563       -0.62730
H         -3.53631        5.49880        0.58117
H         -1.93108        4.75699        0.63638
H         -5.19322        3.25593       -0.05773
H         -5.68286        3.68370        1.56899
H         -4.06635        0.39386       -0.14695
C         -5.22954        1.54421        1.29497
C         -3.79782       -0.53068        1.78921
H         -3.41558        3.71259        2.36330
H         -5.43449        1.40901        2.36590
H         -6.13072        1.18528        0.77496
H         -4.64683       -1.21616        1.73746
H         -2.90322       -1.08037        1.49140
H         -3.67027       -0.23671        2.83264
C         -1.27803       -3.75590       -0.21761
C         -0.98521       -3.30632        1.09540
C         -0.51597       -2.01387        1.25793
C         -0.39113       -1.16783        0.18780
C         -0.75132       -1.57101       -1.06981
C         -1.24692       -2.84154       -1.30136
O         -1.56995       -5.12640       -0.44950
C         -1.14525       -4.20639        2.33039
H         -0.24080       -1.64686        2.23086
H         -0.63388       -0.86848       -1.87596
C         -1.73557       -3.20022       -2.71333
C          4.64160        0.64085       -0.48067
C          4.09846       -0.43562        0.26642
C          2.73457       -0.44266        0.50684
C          1.94033        0.60213        0.11158
C          2.47832        1.69748       -0.51047
C          3.83233        1.76239       -0.79620
O          5.98225        0.57818       -0.94553
C          4.95170       -1.60194        0.78953
H          2.26677       -1.28002        0.99591
H          1.81495        2.49483       -0.79745
C          4.38954        3.01556       -1.48923
C          0.15247       -4.99805        2.55192
C         -1.42702       -3.36253        3.59477
C         -2.33385       -5.16959        2.15966
C         -2.87192       -4.23728       -2.66137
C         -2.30274       -1.94860       -3.42367
C         -0.55804       -3.74179       -3.53742
C         -0.43156       -5.91415       -0.77466
H          0.07463       -5.63766        3.43072
H          0.37991       -5.62930        1.69644
H          0.99517       -4.32274        2.69892
H         -1.66007       -4.00498        4.44361
H         -0.56534       -2.75992        3.87830
H         -2.27551       -2.69741        3.43780
H         -2.48753       -5.76585        3.05872
H         -3.25041       -4.61579        1.95882
H         -2.17138       -5.85700        1.33309
H         -2.53108       -5.17969       -2.24037
H         -3.69378       -3.87442       -2.04498
H         -3.26066       -4.44306       -3.65836
H         -3.05443       -1.45874       -2.80517
H         -1.52278       -1.22361       -3.65097
H         -2.77190       -2.21915       -4.36917
H         -0.13643       -4.63533       -3.08319
H         -0.87329       -3.99461       -4.54938
H          0.23647       -2.99912       -3.60686
H         -0.55384       -6.34324       -1.76893
H          0.47284       -5.30486       -0.74995
H         -0.33874       -6.73221       -0.06046
C          6.12621       -0.04933       -2.21372
C          4.98139       -2.72215       -0.26126
C          6.38347       -1.14058        1.11683
C          4.35307       -2.16949        2.09737
C          3.57215        4.26715       -1.09642
C          5.84657        3.28277       -1.07026
C          4.29967        2.83168       -3.01194
H          3.97310       -3.07640       -0.47489
H          5.41461       -2.37497       -1.19617
H          5.57014       -3.56986        0.08836
H          6.96843       -1.95308        1.54711
H          6.90373       -0.79702        0.22640
H          6.36741       -0.31857        1.83170
H          5.02157       -2.90736        2.54040
H          4.19838       -1.37657        2.82871
H          3.39988       -2.66664        1.92347
H          3.50437        4.36170       -0.01297
H          4.04104        5.17193       -1.48259
H          2.56248        4.23319       -1.50291
H          6.21873        4.20600       -1.51369
H          5.92427        3.37107        0.01284
H          6.50509        2.47799       -1.38708
H          4.88193        1.97428       -3.34056
H          4.67188        3.71223       -3.53484
H          3.26696        2.66723       -3.31878
H          6.77767       -0.91811       -2.12104
H          5.15363       -0.36249       -2.59551
H          6.58534        0.64638       -2.91587
