111
-148.55262058
P         -2.26211        2.31926        0.98607
P          0.00722        0.13877        0.62321
C         -1.32211        1.75206        2.42579
C         -0.33600        0.80433        2.26229
C         -2.45446        4.15872        0.97544
C         -1.62147        4.78128       -0.12425
C         -1.59484        2.25470        3.68167
H         -2.37416        2.98951        3.80287
C         -0.87156        1.80621        4.77350
H         -1.08367        2.19670        5.75540
C          0.12148        0.85984        4.60612
H          0.68581        0.51238        5.45580
C          0.39129        0.35779        3.34538
H          1.16489       -0.37934        3.19598
Pd        -1.28293        1.35217       -0.86286
Cl        -2.90528        2.28667       -2.09817
Cl         0.02723        0.66846       -2.55563
C         -3.97493        4.34882        0.81425
C         -4.03667        1.80187        1.04574
H         -1.92187        4.39708       -1.10074
H         -1.73674        5.86750       -0.14675
H         -0.56012        4.55461        0.00412
H         -4.20028        4.49138       -0.25161
H         -4.30083        5.27515        1.31120
H         -4.28413        1.45268        0.03434
C         -4.76882        3.12208        1.34829
C         -4.25825        0.70122        2.06164
H         -2.12423        4.51102        1.96123
H         -4.89945        3.21383        2.43535
H         -5.78651        3.09990        0.92957
H         -3.65438       -0.17947        1.82928
H         -3.97780        1.03417        3.06242
H         -5.30630        0.39485        2.09665
C         -1.15733       -4.23207        0.10461
C         -1.31026       -3.62093        1.37625
C         -0.93232       -2.29598        1.51831
C         -0.49944       -1.56795        0.44133
C         -0.47077       -2.11995       -0.81215
C         -0.81960       -3.44187       -1.02336
O         -1.30783       -5.63765       -0.03308
C         -1.85166       -4.37822        2.59896
H         -0.96601       -1.81388        2.47908
H         -0.17213       -1.48783       -1.63053
C         -0.79317       -4.00065       -2.45424
C          4.23275        0.96716       -0.83713
C          3.76370       -0.37093       -0.79230
C          2.47843       -0.59907       -0.33159
C          1.70078        0.42872        0.13224
C          2.18453        1.70929        0.18678
C          3.46439        2.00689       -0.25240
O          5.44890        1.27070       -1.50484
C          4.59694       -1.56247       -1.28899
H          2.05568       -1.58776       -0.35360
H          1.53409        2.48195        0.56071
C          3.97271        3.45189       -0.13385
C         -2.59210       -3.41273        3.55276
C         -2.86613       -5.45762        2.17931
C         -0.68115       -5.01909        3.35964
C         -1.11012       -2.88825       -3.48026
C          0.60646       -4.55824       -2.75495
C         -1.85504       -5.09939       -2.63987
C         -0.10534       -6.37032        0.16579
H         -3.08552       -3.96304        4.35357
H         -1.90949       -2.70718        4.02404
H         -3.35403       -2.84731        3.01680
H         -3.29881       -5.94886        3.05049
H         -3.67718       -5.01731        1.60025
H         -2.39874       -6.22533        1.56776
H          0.02696       -4.25880        3.68851
H         -1.03444       -5.55510        4.24018
H         -0.14159       -5.72379        2.73134
H         -1.22214       -3.30497       -4.48083
H         -2.03796       -2.37730       -3.22461
H         -0.31410       -2.14691       -3.53107
H          1.36020       -3.77732       -2.65878
H          0.86908       -5.35784       -2.06645
H          0.65943       -4.95511       -3.76839
H         -1.87840       -5.45178       -3.67076
H         -1.65349       -5.95750       -2.00355
H         -2.84543       -4.72189       -2.38770
H         -0.23520       -7.06922        0.99190
H          0.12600       -6.94364       -0.73177
H          0.72073       -5.69359        0.38819
C          5.28864        1.57546       -2.88480
C          6.09956       -1.32772       -1.05159
C          4.21629       -2.85191       -0.52540
C          4.32253       -1.78192       -2.78472
C          5.50030        3.49198        0.05218
C          3.56930        4.23509       -1.39253
C          3.35169        4.14747        1.09928
H          6.29526       -1.13100        0.00196
H          6.68390       -2.19824       -1.34863
H          6.46381       -0.47728       -1.62234
H          4.89097       -3.66773       -0.78399
H          4.27645       -2.69663        0.55147
H          3.20794       -3.18356       -0.76850
H          4.60616       -0.91055       -3.36976
H          4.88048       -2.63796       -3.16324
H          3.26245       -1.96498       -2.95858
H          6.01719        3.08939       -0.81516
H          5.85050        4.51336        0.19925
H          5.79647        2.90347        0.91987
H          4.00148        3.79369       -2.28727
H          2.48635        4.23573       -1.51482
H          3.90342        5.27053       -1.33243
H          3.50717        3.55248        1.99886
H          2.28194        4.30954        0.97597
H          3.80580        5.12474        1.26158
H          5.65283        2.58345       -3.08240
H          5.87497        0.87890       -3.48382
H          4.23785        1.50556       -3.16928
