105
-153.06831567
Cl        -0.03858        1.70816        3.13364
Pd        -0.56287        1.20436        1.00465
P         -1.20816        0.51928       -1.14216
N         -0.86913       -1.01823       -1.92335
C          0.11559       -1.96308       -1.62419
C          0.30597       -2.48176       -0.31699
C          1.29852       -3.45990       -0.10172
C          1.47419       -4.02614        1.28776
C          2.33072       -5.30006        1.35757
C          3.57341       -5.17496        0.47172
C          3.17181       -4.94115       -0.99204
C          2.08217       -3.91305       -1.16638
C          1.84764       -3.41953       -2.44316
C          0.88190       -2.47509       -2.67088
H          0.71858       -2.09767       -3.66526
H          2.44409       -3.78617       -3.26142
H          4.04535       -4.63391       -1.58137
H          4.18514       -4.33380        0.82127
H          2.61420       -5.52404        2.39568
H          1.92156       -3.25092        1.92039
C         -0.64326       -2.16632        0.77924
C         -0.15882       -1.58176        1.98326
C         -1.02308       -1.49271        3.07841
C         -2.31673       -1.93520        2.99382
C         -2.81013       -2.50625        1.82753
C         -4.23604       -3.00055        1.83193
C         -4.56166       -3.98089        0.69526
C         -3.97917       -3.48979       -0.63240
C         -2.45436       -3.32225       -0.53794
C         -1.97566       -2.62278        0.71247
H         -1.96954       -4.30422       -0.59137
H         -4.43604       -2.52797       -0.89641
H         -5.64688       -4.13460        0.61059
H         -4.90645       -2.13526        1.77887
H         -2.97018       -1.84320        3.84490
H         -0.66584       -1.03602        3.98468
N          1.12669       -1.03191        2.08565
P          1.56424        0.18130        0.88441
C          2.66114       -0.39523       -0.40071
C          2.52227        0.11627       -1.66609
C          3.40545       -0.26460       -2.65956
C          4.44344       -1.14410       -2.38013
C          4.57569       -1.63481       -1.08746
C          3.68894       -1.25388       -0.09628
H          3.78997       -1.62160        0.91242
H          5.37485       -2.32025       -0.86283
C          5.36953       -1.59003       -3.45706
H          3.28928        0.11626       -3.65973
H          1.71884        0.80319       -1.86844
C          2.41320        1.59109        1.60825
C          3.20068        1.43535        2.72319
C          3.85615        2.53020        3.25675
C          3.72552        3.78489        2.67618
C          2.94266        3.91572        1.53705
C          2.28864        2.82031        1.00381
H          1.67767        2.91957        0.11977
H          2.84718        4.88116        1.07024
C          4.44619        4.96020        3.23896
H          4.47478        2.41595        4.13045
H          3.30653        0.45977        3.16907
H          1.33051       -0.59546        2.97534
H         -1.13843       -0.89996       -2.89162
C         -0.53649        1.87779       -2.10916
C         -0.63263        3.15925       -1.62025
C         -0.08424        4.21243       -2.32678
C          0.55344        3.99090       -3.53963
C          0.63226        2.69239       -4.02458
C          0.08219        1.64132       -3.31428
H          0.15449        0.63345       -3.68744
H          1.13364        2.50866       -4.95951
C          1.17604        5.11901       -4.28607
H         -0.14810        5.21473       -1.93885
H         -1.14900        3.32890       -0.68921
C         -2.99643        0.66256       -1.17218
C         -3.60489        1.33610       -2.20460
C         -4.98372        1.43949       -2.24048
C         -5.76107        0.86274       -1.24533
C         -5.12678        0.19275       -0.20851
C         -3.74830        0.08724       -0.17832
H         -3.24987       -0.43016        0.62425
H         -5.72057       -0.23890        0.57858
C         -7.24378        0.99806       -1.26377
H         -5.46458        1.97414       -3.04176
H         -2.99923        1.78239       -2.97715
Cl        -2.44256        2.43728        1.07634
H          2.83503       -5.88465       -1.43790
H          1.73375       -6.15833        1.02447
H          4.21252       -6.06428        0.56664
H          0.48290       -4.21839        1.71732
H         -4.24615       -4.17398       -1.45028
H         -2.09595       -2.77176       -1.41380
H         -4.44354       -3.46809        2.80309
H         -4.14229       -4.96679        0.93256
H          6.35982       -1.81290       -3.05742
H          4.99203       -2.49087       -3.94292
H          5.48627       -0.81947       -4.22038
H          5.42934        5.06869        2.77900
H          3.88962        5.88236        3.06610
H          4.58746        4.85691        4.31570
H          0.63517        6.05072       -4.11447
H          2.21000        5.26715       -3.97143
H          1.17486        4.92904       -5.36030
H         -7.55856        1.87830       -0.70168
H         -7.61818        1.09799       -2.28353
H         -7.72380        0.12507       -0.81920
