111
-148.55315398
P         -2.28975        2.31981        0.99862
P         -0.00479        0.15993        0.55501
C         -1.33953        1.71134        2.41387
C         -0.33306        0.79304        2.21165
C         -2.53120        4.15172        1.09039
C         -1.65075        4.87397        0.09363
C         -1.61631        2.16232        3.68835
H         -2.41263        2.87269        3.84052
C         -0.87597        1.69326        4.75988
H         -1.09151        2.04355        5.75610
C          0.13882        0.77831        4.55378
H          0.71605        0.41408        5.38763
C          0.41137        0.32664        3.27479
H          1.19728       -0.39075        3.09611
Pd        -1.29020        1.44623       -0.88597
Cl        -2.73528        2.63662       -2.11609
Cl        -0.04040        0.57447       -2.54259
C         -4.04436        4.30996        0.85164
C         -4.05023        1.75359        0.99500
H         -1.88083        4.56029       -0.92563
H         -1.79304        5.95592        0.14544
H         -0.59357        4.66137        0.27059
H         -4.21535        4.48103       -0.22016
H         -4.42127        5.21108        1.35894
H         -4.25801        1.41955       -0.03040
C         -4.82992        3.04539        1.30445
C         -4.26645        0.62594        1.98176
H         -2.27378        4.44592        2.11608
H         -5.01495        3.09678        2.38622
H         -5.82543        3.01311        0.83616
H         -3.63360       -0.23323        1.74595
H         -4.01878        0.94494        2.99575
H         -5.30642        0.29124        1.98460
C         -1.17497       -4.22475        0.13425
C         -1.33071       -3.57826        1.38750
C         -0.95633       -2.24892        1.49138
C         -0.52329       -1.54857        0.39569
C         -0.49414       -2.13693       -0.84103
C         -0.84050       -3.46487       -1.01519
O         -1.31733       -5.63459        0.03766
C         -1.86680       -4.30263        2.63223
H         -0.98991       -1.74266        2.43948
H         -0.19415       -1.53085       -1.67719
C         -0.81438       -4.06386       -2.42977
C          4.25913        0.89771       -0.84453
C          3.76348       -0.43058       -0.79588
C          2.46562       -0.62939       -0.35750
C          1.69942        0.41749        0.08209
C          2.20727        1.68879        0.13451
C          3.50055        1.95748       -0.28356
O          5.49309        1.17165       -1.49207
C          4.58354       -1.64326       -1.26251
H          2.02482       -1.61017       -0.37694
H          1.56616        2.47711        0.49142
C          4.03620        3.39278       -0.16651
C         -2.61131       -3.31390        3.55867
C         -2.87567       -5.39927        2.24512
C         -0.69199       -4.91500        3.40964
C         -1.86808       -5.17582       -2.58092
C         -1.14402       -2.98348       -3.48541
C          0.58856       -4.61891       -2.71956
C         -0.10972       -6.35352        0.25524
H         -1.93219       -2.59095        4.00814
H         -3.37732       -2.76883        3.00770
H         -3.10041       -3.84345        4.37595
H         -3.68980       -4.98037        1.65462
H         -2.40455       -6.18163        1.65536
H         -3.30460       -5.86767        3.13062
H          0.01245       -4.14178        3.71546
H         -1.04140       -5.42716        4.30578
H         -0.14949       -5.63480        2.80127
H         -1.65671       -6.01491       -1.92280
H         -2.86043       -4.79976       -2.33433
H         -1.89315       -5.55608       -3.60181
H         -1.25604       -3.42913       -4.47346
H         -2.07528       -2.47341       -3.24069
H         -0.35451       -2.23721       -3.55989
H          1.33610       -3.82911       -2.65177
H          0.86112       -5.39416       -2.00743
H          0.64021       -5.04706       -3.72027
H          0.71118       -5.66561        0.46195
H         -0.23551       -7.03301        1.09803
H          0.12702       -6.94672       -0.62789
C          5.36458        1.46431       -2.87795
C          6.08580       -1.43272       -1.00118
C          4.16589       -2.91547       -0.48936
C          4.33187       -1.87695       -2.76004
C          3.40547        4.11153        1.04824
C          5.56031        3.40285        0.04974
C          3.67462        4.17356       -1.43930
H          6.65918       -2.31772       -1.27594
H          6.47580       -0.59698       -1.57660
H          6.26630       -1.22511        0.05299
H          4.82969       -3.74681       -0.72568
H          4.21031       -2.74722        0.58632
H          3.15589       -3.23179       -0.74566
H          4.88285       -2.74615       -3.11824
H          3.27226       -2.04580       -2.95036
H          4.63931       -1.01727       -3.35041
H          3.87594        5.08093        1.21113
H          2.34182        4.29388        0.90250
H          3.53139        3.52156        1.95572
H          5.92865        4.41793        0.19615
H          5.82694        2.81520        0.92754
H          6.08573        2.98290       -0.80416
H          4.02994        5.20203       -1.38110
H          2.59455        4.19658       -1.58293
H          4.11465        3.71521       -2.32161
H          4.31789        1.41393       -3.18102
H          5.75405        2.46203       -3.07949
H          5.94633        0.74863       -3.45861
