111
-148.55224029
P         -2.52782        2.08593        0.48268
P          0.09016        0.29712        0.59547
C         -1.76833        1.69975        2.08157
C         -0.61906        0.94067        2.12222
C         -3.00360        3.87146        0.37359
C         -2.23169        4.57721       -0.71978
C         -2.32579        2.16768        3.25409
H         -3.21773        2.77144        3.21566
C         -1.73435        1.86192        4.46772
H         -2.17020        2.22502        5.38414
C         -0.58698        1.09279        4.50585
H         -0.12783        0.85307        5.45076
C         -0.02737        0.63005        3.32824
H          0.86638        0.02604        3.33893
Pd        -1.08049        1.30093       -1.13635
Cl        -2.50273        1.98904       -2.72322
Cl         0.53865        0.52343       -2.48801
C         -4.52956        3.82306        0.13970
C         -4.16897        1.28754        0.18216
H         -1.15345        4.49612       -0.56177
H         -2.45574        4.13901       -1.69337
H         -2.48759        5.63821       -0.77055
H         -4.81938        4.63193       -0.54641
H         -5.05947        4.03255        1.08042
H         -4.00424        0.48881       -0.55411
C         -4.99327        2.44598       -0.41549
C         -4.75327        0.72689        1.46070
H         -2.76798        4.31526        1.35047
H         -6.06177        2.28337       -0.21073
H         -4.89527        2.44439       -1.51124
H         -5.70576        0.22300        1.27989
H         -4.07395        0.01219        1.92842
H         -4.93651        1.52480        2.18225
C         -1.38207       -3.92083       -0.27021
C         -0.19018       -3.45605       -0.88280
C          0.23391       -2.16918       -0.59718
C         -0.42693       -1.39392        0.31833
C         -1.51920       -1.87605        0.99147
C         -1.99711       -3.15424        0.75292
O         -1.98902       -5.12468       -0.71648
C          0.61704       -4.29590       -1.88408
H          1.07176       -1.73769       -1.11697
H         -2.00479       -1.23022        1.70155
C         -3.19024       -3.67267        1.57060
C          4.59620        0.86121        0.26592
C          4.08218       -0.31239        0.87475
C          2.70729       -0.46558        0.95063
C          1.86270        0.52130        0.51336
C          2.35520        1.70223        0.02376
C          3.71896        1.91901       -0.08395
O          5.98463        0.96172       -0.01728
C          4.99572       -1.41918        1.42528
H          2.27326       -1.36826        1.34455
H          1.65161        2.45292       -0.29371
C          4.21644        3.27297       -0.61390
C          0.47181       -5.80219       -1.60133
C          0.14184       -3.97493       -3.30920
C          2.12248       -3.96437       -1.77371
C         -4.49770       -3.27391        0.86967
C         -3.12674       -5.20170        1.74012
C         -3.18076       -3.06450        2.99162
C         -2.91248       -4.93990       -1.78239
H         -0.55371       -6.13553       -1.73720
H          1.09982       -6.38889       -2.27132
H          0.76350       -6.02988       -0.57661
H          0.70590       -4.54459       -4.04718
H         -0.91246       -4.21117       -3.43465
H          0.27165       -2.91534       -3.52855
H          2.71404       -4.63716       -2.39415
H          2.34027       -2.95009       -2.10439
H          2.46341       -4.07119       -0.74445
H         -5.36438       -3.59929        1.44448
H         -4.55754       -2.19284        0.75021
H         -4.56509       -3.71904       -0.12023
H         -3.93647       -5.55946        2.37560
H         -3.21099       -5.71097        0.78334
H         -2.18210       -5.49856        2.19452
H         -3.95073       -3.52136        3.61293
H         -2.21865       -3.22872        3.47616
H         -3.37690       -1.99411        2.97654
H         -3.00584       -3.88041       -2.02449
H         -2.57134       -5.48359       -2.66312
H         -3.88681       -5.33409       -1.49383
C          6.35175        0.48723       -1.30673
C          6.28338       -0.82197        2.02162
C          4.29157       -2.19842        2.55910
C          5.34195       -2.40585        0.30025
C          3.23327        4.40335       -0.23199
C          5.58059        3.64380       -0.00444
C          4.31568        3.20967       -2.14582
H          6.04558       -0.09165        2.79433
H          6.90534       -1.59769        2.46757
H          6.87722       -0.32117        1.26082
H          4.98097       -2.89527        3.03531
H          3.92127       -1.51822        3.32573
H          3.45361       -2.78446        2.18417
H          5.97099       -3.21506        0.67038
H          4.43728       -2.84543       -0.11732
H          5.87324       -1.91244       -0.50930
H          3.64551        5.37823       -0.49139
H          2.28465        4.30856       -0.75832
H          3.03432        4.39852        0.83938
H          6.35209        2.93514       -0.29399
H          5.90125        4.63188       -0.33363
H          5.52524        3.65012        1.08361
H          5.01082        2.43718       -2.46516
H          4.65624        4.16030       -2.55529
H          3.34469        2.98077       -2.58454
H          6.76930        1.30448       -1.89430
H          7.11689       -0.28251       -1.20687
H          5.48318        0.07510       -1.82204
