105
-153.06294071
Cl         0.18839        1.74454        3.17629
Pd        -0.35434        1.27828        1.03748
P         -1.11610        0.61830       -1.08540
N         -0.69037       -0.82517       -2.00031
C          0.15355       -1.89823       -1.71794
C          0.27416       -2.46631       -0.42483
C          1.16435       -3.54441       -0.22768
C          1.25833       -4.17718        1.14165
C          2.44786       -5.13256        1.33114
C          2.62464       -6.04310        0.11358
C          2.85999       -5.20660       -1.15188
C          1.89242       -4.06018       -1.30410
C          1.72176       -3.51239       -2.56866
C          0.86747       -2.46196       -2.77416
H          0.75833       -2.03755       -3.75703
H          2.28339       -3.91716       -3.39360
H          3.87961       -4.80323       -1.14420
H          3.44667       -6.75538        0.27309
H          3.36367       -4.54654        1.47983
H          1.31075       -3.38280        1.89406
C         -0.67598       -2.10310        0.65652
C         -0.18486       -1.58067        1.88473
C         -1.06535       -1.47366        2.96501
C         -2.37539       -1.85714        2.84908
C         -2.87580       -2.36799        1.65795
C         -4.31654       -2.82032        1.63497
C         -4.69457       -3.67602        0.41604
C         -4.06309       -3.11957       -0.86218
C         -2.53239       -3.07697       -0.74102
C         -2.03122       -2.47583        0.55009
H         -2.12296       -4.08964       -0.83541
H         -4.44161       -2.10599       -1.04306
H         -5.78665       -3.74494        0.31098
H         -4.96162       -1.93627        1.67928
H         -3.03657       -1.76618        3.69428
H         -0.70188       -1.06440        3.89124
N          1.13876       -1.13999        2.03993
P          1.69933        0.14079        0.96691
C          2.70804        1.36068        1.81265
C          3.46594        0.99622        2.89935
C          4.24239        1.94353        3.54213
C          4.27085        3.25716        3.09303
C          3.49838        3.60370        1.99262
C          2.72343        2.65532        1.34992
H          2.12528        2.92086        0.49201
H          3.50398        4.62237        1.64425
C          5.08089        4.28493        3.80368
H          4.83001        1.66751        4.40098
H          3.45202       -0.02655        3.23969
C          2.59404       -0.34056       -0.49715
C          2.35724        0.34734       -1.66141
C          3.08346        0.03884       -2.79704
C          4.05259       -0.95539       -2.76523
C          4.29707       -1.61512       -1.56743
C          3.56800       -1.30687       -0.43286
H          3.74951       -1.81499        0.50097
H          5.05900       -2.37467       -1.52969
C          4.83795       -1.28527       -3.98610
H          2.89801        0.56694       -3.71656
H          1.59817        1.11150       -1.67700
H          1.34963       -0.77859        2.96124
H         -0.99770       -0.69104       -2.95561
C         -0.69518        2.05452       -2.09003
C         -0.98337        3.32075       -1.64064
C         -0.64939        4.42285       -2.40379
C         -0.01521        4.26687       -3.62818
C          0.25782        2.98207       -4.07651
C         -0.08125        1.88278       -3.30927
H          0.14793        0.88933       -3.65558
H          0.73909        2.84770       -5.03022
C          0.32730        5.45232       -4.46182
H         -0.87932        5.41381       -2.05119
H         -1.46905        3.44176       -0.68751
C         -2.90757        0.59881       -0.96165
C         -3.55961        0.37711        0.22696
C         -4.94142        0.38363        0.26729
C         -5.68174        0.57841       -0.88988
C         -5.00689        0.79435       -2.08346
C         -3.62353        0.80506       -2.11730
H         -3.09653        0.97839       -3.04281
H         -5.57041        0.96048       -2.98559
C         -7.16967        0.59402       -0.84008
H         -5.45580        0.24799        1.20310
H         -2.98408        0.21112        1.12332
Cl        -2.13847        2.64707        1.21026
H          2.80308       -5.84301       -2.04431
H          2.32838       -5.72785        2.24743
H          1.72354       -6.65570       -0.01646
H          0.32044       -4.70879        1.34147
H         -4.37054       -3.70823       -1.73809
H         -2.11736       -2.51255       -1.58264
H         -4.52309       -3.37366        2.56015
H         -4.34861       -4.70576        0.57141
H          4.49023        4.77384        4.57955
H          5.95612        3.83859        4.27781
H          5.43390        5.05349        3.11465
H          4.23985       -1.14448       -4.88758
H          5.72011       -0.64834       -4.06352
H          5.17193       -2.32375       -3.97048
H          0.56820        6.31480       -3.83876
H          1.19156        5.25148       -5.09649
H         -0.50822        5.72616       -5.10746
H         -7.53688        1.58073       -0.55475
H         -7.60034        0.34187       -1.81012
H         -7.54497       -0.12839       -0.11374
