59
-75.80255392
Cl         1.45518        0.43969        2.42741
P          1.44493        0.13427       -0.84643
P         -1.71460       -0.15648       -0.77236
C          0.45841        0.19531       -2.40430
H          0.15359        1.23096       -2.57456
H          1.09672       -0.10321       -3.24162
C         -0.74435       -0.69199       -2.25018
H         -0.44088       -1.73071       -2.09525
H         -1.39782       -0.66545       -3.12780
C          2.65783       -1.26230       -0.82096
H          2.86262       -1.51855       -1.86762
C          2.60440        1.56050       -0.59032
H          2.33743        1.99718        0.37984
C         -3.12313       -1.30538       -0.41445
H         -3.29634       -1.24463        0.66702
C         -2.68527        1.37545       -1.17393
H         -2.40011        1.66495       -2.19245
C          3.89646       -0.61832       -0.17553
H          3.83094       -0.74309        0.91442
H          4.81070       -1.14971       -0.48162
C          3.99180        0.89315       -0.51844
H          4.49148        1.01160       -1.48956
H          4.63189        1.41781        0.20679
C         -4.28470       -0.63934       -1.16881
H         -4.27540       -0.98685       -2.21152
H         -5.25048       -0.96806       -0.75457
C         -4.15611        0.90700       -1.12937
H         -4.61504        1.28091       -0.20393
H         -4.73097        1.36833       -1.94622
C          2.11749       -2.47598       -0.07690
H          1.17219       -2.78503       -0.54093
H          1.85769       -2.17826        0.94753
C          2.48494        2.60828       -1.69149
H          2.73015        2.13875       -2.65334
H          1.43826        2.92379       -1.78525
C         -2.84934       -2.75048       -0.81175
H         -3.79054       -3.31697       -0.78318
H         -2.52991       -2.77807       -1.86127
C         -2.38905        2.50856       -0.19486
H         -3.16901        3.27697       -0.29162
H         -2.48893        2.12179        0.82827
C          3.08970       -3.64582       -0.05340
H          2.67487       -4.51222        0.46688
H          4.02089       -3.37836        0.44912
H          3.34913       -3.96283       -1.06527
C          3.36963        3.82307       -1.45317
H          4.42364        3.54432       -1.40290
H          3.12119        4.31069       -0.50856
H          3.26539        4.56817       -2.24523
C         -1.81607       -3.41537        0.08359
H         -1.58217       -4.43243       -0.23890
H         -2.16513       -3.46824        1.11664
H         -0.88546       -2.84871        0.09622
C         -1.02148        3.14150       -0.39149
H         -0.92357        3.56428       -1.39313
H         -0.83414        3.94499        0.32445
H         -0.22466        2.40828       -0.27101
Cl        -1.69982       -0.39574        2.39658
Pd        -0.08958       -0.03167        0.87580
