171
-217.84442968
P         -1.63545        0.39282       -0.34102
P          1.66591       -0.35142       -0.38776
C         -0.92342        1.41423       -1.63154
C          0.93586       -1.26423       -1.74657
C         -0.10128        0.85236       -2.60147
C          0.51649        1.70440       -3.53620
C          0.26161        3.06529       -3.48778
C         -0.57724        3.59835       -2.53232
C         -1.16288        2.76653       -1.59892
C          1.17705       -2.61346       -1.82981
C          0.59184       -3.36108       -2.83275
C         -0.25080       -2.74916       -3.73653
C         -0.50534       -1.38942       -3.66984
C          0.11415       -0.62084       -2.66555
Cl         1.63241        0.51633        2.76978
Cl        -1.52157       -0.48217        2.80005
C         -1.42370       -0.77063       -4.66503
C          1.41661        1.16178       -4.58930
H         -0.77205        4.65815       -2.50967
H         -1.81211        3.17458       -0.84138
H          1.82629       -3.08336       -1.10837
H          0.79031       -4.41789       -2.90543
H          0.72911        3.71055       -4.21232
H         -0.72315       -3.33040       -4.51050
C         -3.87622       -3.27424       -1.74026
C         -2.89168       -3.41839       -0.77000
C         -2.19116       -2.28338       -0.38396
C         -2.47583       -1.06504       -0.94729
C         -3.45459       -0.93619       -1.90187
C         -4.17881       -2.04745       -2.31876
H         -4.44085       -4.13474       -2.04581
H         -1.43072       -2.34289        0.37608
H         -3.65674        0.04227       -2.30348
C         -4.42488        2.70820        2.38551
C         -4.94355        1.68082        1.60686
C         -4.07166        0.99820        0.76859
C         -2.74576        1.34705        0.70505
C         -2.25223        2.37017        1.47561
C         -3.08225        3.06585        2.34403
H         -5.08819        3.23111        3.04838
H         -4.41787        0.17611        0.16813
H         -1.20525        2.61503        1.41384
C          4.20590       -2.90506        2.37064
C          4.81742       -1.88167        1.65847
C          4.02791       -1.12971        0.79723
C          2.69121       -1.40902        0.65155
C          2.10483       -2.42822        1.36268
C          2.85255       -3.19141        2.25058
H          4.79785       -3.48409        3.05537
H          4.44508       -0.30305        0.25057
H          1.04951       -2.60290        1.24280
C          3.98834        3.30417       -1.68458
C          2.93356        3.45570       -0.79293
C          2.23535        2.31667       -0.41288
C          2.57388        1.09128       -0.92921
C          3.61095        0.95861       -1.81981
C          4.35102        2.06865       -2.20912
H          4.54735        4.17743       -1.96296
H          1.42442        2.37319        0.29251
H          3.85121       -0.01993       -2.20127
Pd         0.03686        0.02994        1.25488
C         -3.53699       -5.87386       -0.56074
C         -2.56885       -4.76439       -0.10712
C         -2.68387       -4.61837        1.42255
C         -1.13731       -5.17843       -0.48776
H         -3.30600       -6.81521       -0.06220
H         -4.56823       -5.61603       -0.32001
H         -3.46417       -6.04491       -1.63458
H         -1.98897       -3.87313        1.80599
H         -3.69011       -4.30879        1.70400
H         -2.46848       -5.56249        1.92251
H         -0.85092       -6.10556        0.00836
H         -1.05847       -5.33312       -1.56332
H         -0.41901       -4.40871       -0.20977
C         -5.44969       -0.52268       -3.91217
C         -5.32965       -1.94489       -3.33040
C         -6.65086       -2.29502       -2.62134
C         -5.09303       -2.92943       -4.49154
H         -4.52918       -0.22295       -4.41201
H         -6.25532       -0.47133       -4.64447
H         -5.67056        0.20414       -3.13070
H         -6.83215       -1.61731       -1.78771
H         -7.49436       -2.21965       -3.30735
H         -6.62979       -3.31044       -2.22707
H         -4.14681       -2.72372       -4.98987
H         -5.06814       -3.96033       -4.14099
H         -5.88701       -2.85222       -5.23418
C         -6.71938        0.80437        3.13926
C         -6.42859        1.30658        1.71372
C         -6.80627        0.19453        0.71454
C         -7.29346        2.54401        1.40986
H         -7.76402        0.51243        3.24539
H         -6.10032       -0.06110        3.37495
H         -6.51041        1.57575        3.87963
H         -7.86683       -0.04639        0.78565
H         -6.60591        0.50647       -0.31035
H         -6.24800       -0.72012        0.91358
H         -8.35433        2.29786        1.45277
H         -7.10949        3.34388        2.12597
H         -7.07656        2.92937        0.41373
C         -1.25795        3.65629        3.96611
C         -2.49252        4.18753        3.21001
C         -3.50926        4.70122        4.24746
C         -2.08100        5.35706        2.29939
H         -0.46630        3.35589        3.28135
H         -0.84830        4.41841        4.62862
H         -1.52169        2.78864        4.57039
H         -3.06187        5.46752        4.88041
H         -4.37838        5.14455        3.76206
H         -3.84860        3.89268        4.89473
H         -1.63737        6.16717        2.87789
H         -1.35302        5.03565        1.55639
H         -2.94532        5.75384        1.76716
C          6.50800       -1.12645        3.34296
C          6.30503       -1.57795        1.88538
C          6.80421       -0.45940        0.95138
C          7.13724       -2.84450        1.61071
H          6.21069       -1.90669        4.04275
H          7.55301       -0.88427        3.53545
H          5.91000       -0.24078        3.55698
H          6.67319       -0.74196       -0.09233
H          6.26827        0.47264        1.12988
H          7.86462       -0.26469        1.11123
H          8.20144       -2.64619        1.73731
H          6.86803       -3.65314        2.28895
H          6.97846       -3.19518        0.59109
C          2.48558       -3.97494        4.60463
C          2.22406       -4.28983        3.11959
C          2.85019       -5.64701        2.75377
C          0.70072       -4.37724        2.90983
H          3.55155       -3.96275        4.82787
H          2.07735       -2.99881        4.86623
H          2.01965       -4.71995        5.24929
H          2.41519       -6.45041        3.34804
H          2.68279       -5.87635        1.70146
H          3.92548       -5.64565        2.92896
H          0.26372       -5.14369        3.54968
H          0.21751       -3.43018        3.15003
H          0.46566       -4.63701        1.87929
C          3.77352        5.32852        0.63976
C          2.59843        4.84209       -0.22660
C          1.32788        4.80369        0.64440
C          2.36167        5.82956       -1.38473
H          4.68819        5.40933        0.05332
H          3.56292        6.30763        1.06960
H          3.96116        4.63311        1.45771
H          1.46367        4.15730        1.51118
H          1.08094        5.79924        1.01278
H          0.47596        4.43980        0.07116
H          2.07815        6.81189       -1.00732
H          3.25703        5.95413       -1.99223
H          1.56310        5.47508       -2.03521
C          6.26111        3.23214       -3.43028
C          5.55181        1.89253       -3.15217
C          5.07807        1.30730       -4.49417
C          6.56556        0.93258       -2.50380
H          5.58540        3.94270       -3.90605
H          6.63835        3.67525       -2.50878
H          7.11050        3.08812       -4.09800
H          5.92087        1.14078       -5.16489
H          4.57068        0.35359       -4.35418
H          4.38899        1.99006       -4.98918
H          7.44419        0.80640       -3.13617
H          6.89662        1.31843       -1.53993
H          6.12807       -0.05190       -2.34288
H         -0.95211       -0.71013       -5.64681
H          2.16060        1.90239       -4.88338
H         -1.71808        0.23668       -4.36774
H         -2.33382       -1.36131       -4.76820
H          0.85287        0.88487       -5.48084
H          1.94800        0.27697       -4.23600
