171
-217.84474803
P         -1.60113        0.44274       -0.34032
P          1.57922       -0.35710       -0.38267
C         -0.89066        1.43174       -1.66033
C          0.85824       -1.28032       -1.73860
C         -0.09492        0.84965       -2.64127
C          0.54316        1.68657       -3.57743
C          0.32968        3.05381       -3.52091
C         -0.48755        3.60777       -2.55860
C         -1.08828        2.79067       -1.62153
C          1.06577       -2.63615       -1.79691
C          0.49823       -3.37987       -2.81293
C         -0.28693       -2.75566       -3.75937
C         -0.50727       -1.38846       -3.71664
C          0.08911       -0.62714       -2.69374
Cl         1.61081        0.45568        2.84711
Cl        -1.53290       -0.33378        2.88759
C         -1.33847       -0.73863       -4.76642
C          1.46585        1.14053       -4.61065
H         -0.64771        4.67316       -2.52886
H         -1.71128        3.21618       -0.85147
H          1.67722       -3.11289       -1.04762
H          0.66902       -4.44268       -2.86556
H          0.82066        3.68772       -4.24005
H         -0.73655       -3.33315       -4.54939
C         -3.85138       -3.30649       -1.50376
C         -2.83701       -3.39156       -0.55771
C         -2.12981       -2.23433       -0.26028
C         -2.43773       -1.04838       -0.87931
C         -3.44592       -0.97993       -1.81011
C         -4.18472       -2.11215       -2.13295
H         -4.40410       -4.19272       -1.74799
H         -1.34042       -2.25112        0.47116
H         -3.67177       -0.03130       -2.26797
C         -4.41420        2.78968        2.34446
C         -4.93084        1.77565        1.54764
C         -4.05333        1.10169        0.70962
C         -2.71930        1.42483        0.67964
C         -2.22634        2.43027        1.47525
C         -3.06816        3.13308        2.32848
H         -5.06835        3.31964        3.01079
H         -4.41201        0.30210        0.08603
H         -1.17176        2.64332        1.44649
C          4.20637       -2.94710        2.26709
C          2.83456       -3.16968        2.26432
C          2.05410       -2.40094        1.41109
C          2.62309       -1.42824        0.62603
C          3.97889       -1.21388        0.65279
C          4.80231       -1.98028        1.46732
H          4.83265       -3.52796        2.91767
H          0.98686       -2.54092        1.38329
H          4.38948       -0.42780        0.04547
C          4.02537        3.18119       -1.77297
C          3.01125        3.39319       -0.84766
C          2.26874        2.29406       -0.43465
C          2.52450        1.05070       -0.95609
C          3.51612        0.86046       -1.88724
C          4.29664        1.92986       -2.31147
H          4.63501        4.01459       -2.06957
H          1.48868        2.39557        0.29975
H          3.67899       -0.13254       -2.27081
Pd         0.01915        0.09521        1.30772
C         -1.13558       -5.21344       -0.40609
C         -2.47597       -4.70624        0.14867
C         -3.54813       -5.78968       -0.07965
C         -2.35659       -4.46536        1.66720
H         -0.35277       -4.46920       -0.26859
H         -0.82545       -6.13171        0.09221
H         -1.21568       -5.41852       -1.47329
H         -3.30688       -6.69496        0.47742
H         -4.52745       -5.44557        0.25272
H         -3.61593       -6.06400       -1.13204
H         -2.14063       -5.39485        2.19367
H         -1.55916       -3.76262        1.90191
H         -3.28604       -4.05974        2.06608
C         -6.11799       -3.33820       -3.25358
C         -5.35987       -2.00313       -3.11755
C         -4.83334       -1.59935       -4.50439
C         -6.34879       -0.93629       -2.61177
H         -6.51400       -3.66381       -2.29176
H         -6.95929       -3.23653       -3.93908
H         -5.46892       -4.12109       -3.64541
H         -4.32028       -0.63934       -4.46562
H         -4.13459       -2.34595       -4.88043
H         -5.64959       -1.51203       -5.22133
H         -5.88135        0.04651       -2.57061
H         -7.21486       -0.86344       -3.26935
H         -6.70439       -1.18435       -1.61193
C         -7.18772        2.10925        2.67844
C         -6.41478        1.38209        1.56124
C         -6.54173       -0.13629        1.79583
C         -7.04202        1.75221        0.20615
H         -8.23042        1.79225        2.69634
H         -6.75814        1.89145        3.65613
H         -7.17655        3.18845        2.52752
H         -7.58807       -0.43578        1.85252
H         -6.07912       -0.70632        0.99129
H         -6.05724       -0.42227        2.72916
H         -8.09458        1.47165        0.17160
H         -6.97102        2.82519        0.02885
H         -6.53167        1.24611       -0.61161
C         -3.31516        5.52675        3.05076
C         -2.54482        4.21400        3.28461
C         -1.04491        4.48681        3.06506
C         -2.74702        3.73921        4.73484
H         -2.94036        6.31886        3.69880
H         -3.20720        5.85678        2.01766
H         -4.37831        5.40689        3.25497
H         -0.45002        3.59332        3.25395
H         -0.85965        4.82045        2.04494
H         -0.68936        5.26659        3.73836
H         -2.36766        4.47488        5.44374
H         -3.80169        3.57591        4.95346
H         -2.22103        2.80021        4.90684
C          1.44455       -5.25347        2.35037
C          2.15570       -4.18370        3.19586
C          1.12622       -3.44676        4.07512
C          3.17207       -4.88365        4.11809
H          0.95989       -5.99600        2.98406
H          0.68103       -4.80448        1.71914
H          2.15351       -5.76964        1.70332
H          0.35158       -2.97524        3.47200
H          0.63796       -4.13407        4.76553
H          1.61044       -2.66516        4.66001
H          2.67083       -5.59053        4.77922
H          3.90921       -5.44010        3.53954
H          3.69556       -4.16108        4.74389
C          6.77873       -0.68141        0.52851
C          6.32037       -1.76006        1.52994
C          7.04343       -3.07626        1.18895
C          6.70597       -1.30577        2.94922
H          6.32050        0.28202        0.75142
H          7.85970       -0.54842        0.57005
H          6.51896       -0.96125       -0.49226
H          6.75808       -3.42568        0.19682
H          8.12487       -2.94131        1.20108
H          6.79884       -3.86111        1.90359
H          7.77761       -1.12149        3.02287
H          6.18525       -0.38519        3.21222
H          6.44480       -2.06037        3.69027
C          3.98874        5.23119        0.54218
C          2.76682        4.80069       -0.28818
C          1.51911        4.83871        0.61403
C          2.55286        5.78817       -1.45093
H          3.84258        6.22444        0.96629
H          4.16017        4.53471        1.36277
H          4.89065        5.25656       -0.06854
H          1.64485        4.19490        1.48425
H          1.33424        5.84972        0.97678
H          0.63411        4.51425        0.06729
H          1.71745        5.47246       -2.07471
H          2.33556        6.78869       -1.07738
H          3.43612        5.85599       -2.08456
C          5.35239        2.75887       -4.44538
C          5.47190        1.75287       -3.28408
C          5.50688        0.33033       -3.87624
C          6.78734        2.00264       -2.52464
H          4.41642        2.62279       -4.98506
H          5.38647        3.78723       -4.08846
H          6.16914        2.62983       -5.15544
H          5.65811       -0.41691       -3.09758
H          4.57894        0.10073       -4.39949
H          6.32411        0.22857       -4.59016
H          6.82077        3.01325       -2.11876
H          6.89093        1.30615       -1.69344
H          7.64809        1.87569       -3.18097
H         -0.71666       -0.36217       -5.57927
H          2.42757        1.65170       -4.57150
H         -1.90321        0.10024       -4.35700
H         -2.04983       -1.44364       -5.19679
H          1.05586        1.27580       -5.61253
H          1.65510        0.07686       -4.46155
