87
-129.18117159
P         -1.70432       -0.46173        0.03741
P          1.50910        0.44846       -0.07237
C         -1.52200        0.85073       -1.19718
C          1.32890       -0.59504       -1.52467
C         -0.57665        0.84760       -2.22166
C         -0.44558        1.99485       -3.02831
C         -1.27195        3.08208       -2.80463
C         -2.20859        3.06542       -1.79523
C         -2.32280        1.94946       -0.98988
C          2.20250       -1.63549       -1.72467
C          2.08720       -2.42965       -2.84845
C          1.09189       -2.17313       -3.76794
C          0.19654       -1.13265       -3.58220
C          0.32123       -0.31696       -2.43959
Cl         1.12697        1.49412        2.97535
Cl        -1.35971       -0.51412        3.29861
H         -2.84029        3.92208       -1.62641
H         -3.03794        1.93853       -0.18327
H          2.98364       -1.82145       -1.00651
H          2.77177       -3.24710       -3.00497
H         -1.16837        3.95367       -3.42858
H          0.99968       -2.78943       -4.64606
C         -0.47401       -4.69584       -1.06486
C         -1.25305       -3.97128       -1.95648
C         -1.62442       -2.67588       -1.61377
C         -1.23048       -2.13423       -0.41301
C         -0.49585       -2.87596        0.48347
C         -0.10300       -4.15817        0.15173
H         -0.16803       -5.69363       -1.32960
C         -1.65028       -4.55993       -3.26434
H         -2.21312       -2.08413       -2.29446
H         -0.27158       -2.46275        1.45380
H          0.48243       -4.73949        0.84517
C         -5.93752       -0.42307        1.70993
C         -5.58757       -1.32950        0.72873
C         -4.29744       -1.34435        0.23224
C         -3.36889       -0.45346        0.71841
C         -3.71702        0.45298        1.69301
C         -5.00574        0.47480        2.21212
H         -6.94223       -0.40781        2.09672
H         -6.31850       -2.02496        0.34986
H         -4.00930       -2.04775       -0.53213
H         -2.97861        1.14134        2.06964
C         -5.37787        1.46310        3.26079
C          4.88626       -1.15423        2.53077
C          4.97076        0.12222        2.01011
C          3.95092        0.61232        1.21644
C          2.85899       -0.17813        0.94629
C          2.77149       -1.44872        1.46607
C          3.78223       -1.95513        2.27301
H          5.68089       -1.53904        3.14701
H          5.82911        0.73757        2.22454
H          3.99828        1.60973        0.81076
H          1.91324       -2.05782        1.23951
C          3.69041       -3.33842        2.81409
C          2.36736        4.70928       -1.38848
C          1.49767        4.48409       -0.33958
C          1.24227        3.19200        0.07801
C          1.85302        2.13878       -0.56051
C          2.72797        2.35836       -1.59879
C          2.99270        3.65190       -2.03490
H          2.57190        5.71541       -1.71276
H          1.02190        5.31402        0.15660
H          0.58401        3.00026        0.90944
H          3.20017        1.51812       -2.08116
C          3.94830        3.89727       -3.14905
Pd        -0.11910        0.24213        1.59037
C          0.56568        2.07283       -4.11964
C         -0.87256       -0.89935       -4.59231
H          0.09407        1.95640       -5.09609
H          1.07514        3.03732       -4.10754
H          1.32734        1.29934       -4.01752
H         -1.64554       -0.23203       -4.20942
H         -0.46044       -0.45396       -5.49856
H         -1.35620       -1.83639       -4.87138
H         -1.98665       -5.59053       -3.14253
H         -2.46582       -3.99717       -3.72069
H         -0.81071       -4.56015       -3.96066
H         -5.64360        2.42180        2.81324
H         -6.23019        1.11612        3.84657
H         -4.54908        1.63086        3.95022
H          2.65878       -3.59335        3.06150
H          4.05097       -4.06471        2.08430
H          4.28508       -3.44798        3.72202
H          4.94932        4.09597       -2.76377
H          4.00898        3.03412       -3.81363
H          3.64096        4.75546       -3.74847
