111
-148.55388653
P         -2.54954        2.06803        0.89517
P          0.11448        0.38828        0.49958
C         -1.45873        1.75813        2.31006
C         -0.28255        1.06477        2.12315
C         -3.31843        3.74982        0.97724
C         -2.68764        4.69714       -0.01981
C         -1.80235        2.20195        3.57101
H         -2.73307        2.72526        3.71683
C         -0.95832        1.95803        4.64082
H         -1.22575        2.30456        5.62573
C          0.22408        1.26936        4.44877
H          0.88004        1.07793        5.28197
C          0.56104        0.81704        3.18562
H          1.47245        0.26385        3.01999
Pd        -1.34496        1.43272       -0.96934
Cl        -3.02575        2.26374       -2.19596
Cl         0.08393        0.81981       -2.59369
C         -4.81048        3.45559        0.73420
C         -4.06787        1.01051        0.88861
H         -2.81246        4.32797       -1.03859
H         -3.14278        5.68913        0.02873
H         -1.61535        4.80583        0.15974
H         -5.02011        3.56371       -0.33893
H         -5.43744        4.20864        1.23546
H         -4.16663        0.62737       -0.13597
C         -5.19195        2.01848        1.19219
C         -3.95095       -0.12810        1.87854
H         -3.16426        4.11261        2.00138
H         -5.38516        2.01774        2.27378
H         -6.13373        1.69403        0.72401
H         -4.85665       -0.73876        1.89479
H         -3.10890       -0.77871        1.63274
H         -3.78768        0.25165        2.88882
C         -1.14762       -3.97888        0.19794
C         -1.09762       -3.35489        1.47136
C         -0.69586       -2.03123        1.53884
C         -0.42743       -1.31714        0.40085
C         -0.58480       -1.88454       -0.83549
C         -0.97845       -3.20272       -0.97669
O         -1.32754       -5.38447        0.10263
C         -1.43787       -4.10258        2.77012
H         -0.57769       -1.53958        2.48804
H         -0.38205       -1.27327       -1.69735
C         -1.18170       -3.76821       -2.39049
C          4.47271        0.83175       -0.73905
C          3.82357       -0.42222       -0.86896
C          2.49859       -0.51483       -0.48036
C          1.84468        0.55214        0.07731
C          2.49551        1.73761        0.29662
C          3.82505        1.89680       -0.06083
O          5.75196        1.03289       -1.32225
C          4.50867       -1.66116       -1.46626
H          1.94871       -1.42713       -0.62888
H          1.94231        2.54563        0.74381
C          4.53064        3.22430        0.25793
C         -0.16784       -4.76809        3.32110
C         -1.98538       -3.12767        3.83750
C         -2.52949       -5.16091        2.52840
C          0.15589       -4.31180       -2.91572
C         -2.24859       -4.87771       -2.39853
C         -1.67632       -2.66186       -3.35110
C         -0.11215       -6.12296        0.09421
H         -0.37573       -5.29556        4.25171
H          0.24021       -5.48520        2.61297
H          0.60224       -4.02301        3.51972
H         -2.33344       -3.67192        4.71514
H         -1.22207       -2.42932        4.17732
H         -2.82556       -2.55531        3.44597
H         -2.81778       -5.64667        3.46029
H         -3.41823       -4.70318        2.09518
H         -2.18690       -5.93525        1.84639
H          0.90417       -3.52048       -2.95431
H          0.54125       -5.09999       -2.27313
H          0.04444       -4.71943       -3.92008
H         -1.93761       -5.73252       -1.80345
H         -3.18783       -4.50910       -1.98750
H         -2.43744       -5.23260       -3.41137
H         -0.90858       -1.91166       -3.53397
H         -1.94800       -3.08253       -4.31887
H         -2.55456       -2.16031       -2.94547
H          0.74160       -5.45271        0.20252
H         -0.11678       -6.84161        0.91364
H         -0.02398       -6.67453       -0.84156
C          5.70689        1.50303       -2.66372
C          3.92362       -2.95613       -0.85589
C          4.27165       -1.68592       -2.98403
C          6.01750       -1.66436       -1.16200
C          3.94334        3.85921        1.53913
C          6.03313        3.00771        0.51488
C          4.32839        4.20074       -0.91060
H          3.95700       -2.92107        0.23271
H          2.89116       -3.11785       -1.16191
H          4.49197       -3.82755       -1.18025
H          4.73203       -2.56330       -3.43750
H          3.20500       -1.71055       -3.20631
H          4.68750       -0.80240       -3.46234
H          6.49023       -2.57326       -1.53336
H          6.51858       -0.81962       -1.62774
H          6.19228       -1.60529       -0.08825
H          3.95530        3.14792        2.36462
H          4.52404        4.73092        1.84000
H          2.91818        4.19477        1.39011
H          6.51935        3.93882        0.80491
H          6.18509        2.28246        1.31355
H          6.53842        2.63628       -0.37308
H          4.74886        3.80542       -1.83207
H          4.80606        5.15864       -0.70643
H          3.26753        4.38171       -1.08203
H          6.20467        0.78884       -3.31938
H          4.67287        1.63304       -2.98587
H          6.23303        2.45480       -2.73554
