171
-217.83486175
P         -1.49483        0.24193       -0.31092
P          1.67025       -0.71918        0.31242
C         -0.54733        0.92861       -1.68655
C          0.91998       -1.81170       -0.91566
C          0.27126        0.07531       -2.41653
C          1.04499        0.59858       -3.47034
C          0.92730        1.94167       -3.78700
C          0.09840        2.77206       -3.06252
C         -0.63002        2.26250       -2.00574
C          0.91074       -3.14312       -0.57252
C          0.30584       -4.07168       -1.39756
C         -0.30502       -3.65239       -2.55978
C         -0.32452       -2.31410       -2.91431
C          0.30907       -1.37105       -2.08356
Cl         0.82287       -0.63098        3.49700
Cl        -2.17562       -1.31655        2.58513
C         -1.03072       -1.90618       -4.15994
C          1.96931       -0.27002       -4.25014
H          0.02479        3.81666       -3.31713
H         -1.25426        2.91471       -1.42035
H          1.37331       -3.45265        0.35316
H          0.30470       -5.11535       -1.12872
H          1.49345        2.33575       -4.61365
H         -0.78690       -4.36850       -3.20390
C         -4.40146       -2.78748       -2.01000
C         -4.27418       -1.55149       -2.63162
C         -3.37990       -0.64006       -2.08192
C         -2.65694       -0.95995       -0.95886
C         -2.79066       -2.18949       -0.36565
C         -3.66228       -3.13570       -0.88684
H         -5.10722       -3.49602       -2.40223
H         -3.22625        0.32159       -2.53907
H         -2.21778       -2.40070        0.51841
C         -3.94267        3.58018        1.59988
C         -4.01631        3.37034        0.22954
C         -3.26976        2.33023       -0.31020
C         -2.46073        1.55362        0.48414
C         -2.41888        1.77270        1.84125
C         -3.16003        2.78838        2.42832
H         -4.51839        4.37619        2.03508
H         -3.31298        2.12287       -1.36453
H         -1.81904        1.13357        2.45936
C          5.56000       -2.65330        1.59367
C          4.71881       -2.15904        2.58281
C          3.52033       -1.58304        2.18450
C          3.18508       -1.51558        0.85666
C          4.02445       -2.01690       -0.10822
C          5.23785       -2.59529        0.24356
H          6.49501       -3.09652        1.88354
H          2.82704       -1.19075        2.90514
H          3.71965       -1.95644       -1.13936
C          2.89377        3.50953       -0.77312
C          1.80368        3.34570        0.07235
C          1.42294        2.04930        0.39711
C          2.09470        0.97224       -0.13465
C          3.17042        1.15676       -0.96794
C          3.59926        2.43557       -1.29891
H          3.21497        4.50561       -1.01602
H          0.59654        1.87501        1.06172
H          3.68423        0.29115       -1.34686
Pd        -0.30414       -0.58849        1.55963
C         -6.59652       -0.97619       -3.34684
C         -5.15524       -1.19577       -3.83835
C         -5.13140       -2.33833       -4.87266
C         -4.66681        0.09010       -4.53520
H         -6.63476       -0.16958       -2.61474
H         -7.25679       -0.71488       -4.17360
H         -6.98886       -1.87575       -2.87322
H         -5.54097       -3.26025       -4.46267
H         -5.72434       -2.07893       -5.74964
H         -4.11412       -2.54016       -5.20556
H         -4.74829        0.95315       -3.87546
H         -3.62814       -0.00640       -4.85059
H         -5.26514        0.30093       -5.42147
C         -5.28349       -4.67049        0.24998
C         -3.83496       -4.52045       -0.24799
C         -2.88231       -4.71542        0.94868
C         -3.52760       -5.60748       -1.29428
H         -5.52134       -3.89470        0.97754
H         -5.99440       -4.58816       -0.57139
H         -5.43411       -5.63883        0.72683
H         -3.08476       -3.98835        1.73477
H         -3.00171       -5.70866        1.38093
H         -1.84173       -4.61118        0.64231
H         -4.20571       -5.54405       -2.14437
H         -2.51006       -5.50289       -1.66926
H         -3.62672       -6.60327       -0.86262
C         -4.88240        3.84296       -2.11677
C         -4.87563        4.29548       -0.64309
C         -4.30314        5.72270       -0.57110
C         -6.32706        4.28737       -0.12836
H         -5.27733        2.83176       -2.21248
H         -5.50798        4.50029       -2.72049
H         -3.87853        3.86522       -2.54064
H         -4.88003        6.40720       -1.19272
H         -4.31923        6.10286        0.44981
H         -3.26968        5.74018       -0.91739
H         -6.39007        4.66217        0.89239
H         -6.96487        4.91404       -0.75153
H         -6.73296        3.27596       -0.13982
C         -2.17639        2.07820        4.66793
C         -3.16865        3.01406        3.94767
C         -4.58348        2.73217        4.48426
C         -2.77577        4.46929        4.26235
H         -2.17854        2.26469        5.74159
H         -2.44084        1.03181        4.51709
H         -1.15916        2.23176        4.30837
H         -4.62596        2.86696        5.56488
H         -5.31613        3.40107        4.03393
H         -4.88217        1.70853        4.25904
H         -2.78205        4.64931        5.33724
H         -1.77460        4.68769        3.89346
H         -3.46512        5.17700        3.80387
C          6.44273       -1.48256        4.27327
C          5.12944       -2.25707        4.05893
C          5.33063       -3.73688        4.43372
C          4.05369       -1.66101        4.98849
H          6.32247       -0.43662        3.99157
H          6.75042       -1.51779        5.31821
H          7.25102       -1.89953        3.67365
H          4.41533       -4.30383        4.26479
H          6.12118       -4.19271        3.83881
H          5.60265       -3.83981        5.48406
H          3.10527       -2.18648        4.87907
H          4.35640       -1.74081        6.03238
H          3.88932       -0.60558        4.77269
C          6.45222       -4.64377       -0.54271
C          6.21375       -3.14569       -0.80569
C          7.54652       -2.38068       -0.70908
C          5.66128       -2.98302       -2.23594
H          5.51337       -5.19564       -0.58548
H          7.12742       -5.06768       -1.28584
H          6.89264       -4.80857        0.43992
H          8.00536       -2.50674        0.27087
H          8.25521       -2.73532       -1.45729
H          7.39050       -1.31420       -0.87053
H          6.36378       -3.37873       -2.96928
H          4.72078       -3.52035       -2.35691
H          5.49287       -1.93318       -2.47501
C          0.66777        5.52366       -0.48560
C          1.10288        4.58262        0.65410
C          2.08110        5.31754        1.58759
C         -0.15113        4.20111        1.46007
H          1.52059        5.86859       -1.06842
H         -0.01939        5.01796       -1.16226
H          0.15945        6.40298       -0.09023
H          2.96831        5.64675        1.04764
H          1.61273        6.19615        2.03088
H          2.40541        4.66289        2.39635
H          0.10271        3.57497        2.31487
H         -0.65166        5.09210        1.83805
H         -0.86389        3.66468        0.83635
C          4.40785        3.43725       -3.45249
C          4.83155        2.68146       -2.18111
C          5.50561        1.35853       -2.59647
C          5.85788        3.52013       -1.39647
H          3.69336        2.85037       -4.02759
H          3.93994        4.39048       -3.20910
H          5.26763        3.63927       -4.09106
H          4.82574        0.73543       -3.17635
H          6.38425        1.54831       -3.21276
H          5.83093        0.79414       -1.72268
H          6.14638        3.01181       -0.47657
H          6.75868        3.68656       -1.98699
H          5.45230        4.49464       -1.12746
H         -2.01140       -2.37953       -4.21649
H          2.84822        0.28679       -4.57814
H         -0.46454       -2.20112       -5.04452
H         -1.18420       -0.82719       -4.19978
H          1.47564       -0.66711       -5.13794
H          2.31838       -1.11259       -3.65105
