111
-148.55676999
P         -2.55611        2.04586        0.81503
P          0.13809        0.41762        0.47781
C         -1.47285        1.79469        2.24667
C         -0.28153        1.12086        2.08558
C         -3.38443        3.70059        0.85135
C         -2.77729        4.64366       -0.16432
C         -1.83813        2.25839        3.49427
H         -2.78054        2.76580        3.61964
C         -1.00067        2.05360        4.57731
H         -1.28480        2.41568        5.55189
C          0.19593        1.38278        4.41192
H          0.84622        1.22064        5.25572
C          0.55428        0.91001        3.16234
H          1.47639        0.36856        3.01913
Pd        -1.30373        1.44573       -1.02361
Cl        -2.97338        2.15116       -2.34014
Cl         0.09236        0.76587       -2.65019
C         -4.86272        3.34877        0.59948
C         -4.03549        0.93488        0.80539
H         -1.71151        4.79562        0.02243
H         -2.87833        4.24328       -1.17404
H         -3.26811        5.61955       -0.14666
H         -5.06542        3.43125       -0.47727
H         -5.52103        4.08739        1.08164
H         -4.10641        0.53213       -0.21399
C         -5.19823        1.90710        1.07823
C         -3.89339       -0.18255        1.81566
H         -3.25349        4.09340        1.86755
H         -5.40419        1.91806        2.15743
H         -6.12219        1.54104        0.60522
H         -4.77775       -0.82377        1.82988
H         -3.02626       -0.80743        1.59214
H         -3.75718        0.21900        2.82153
C         -1.19935       -3.93517        0.25851
C         -1.05750       -3.30985        1.52632
C         -0.62799       -1.99349        1.56366
C         -0.42251       -1.28347        0.40996
C         -0.68085       -1.84617       -0.81147
C         -1.11064       -3.15557       -0.92499
O         -1.34453       -5.34348        0.17026
C         -1.35889       -4.00614        2.86431
H         -0.44207       -1.50726        2.50554
H         -0.52988       -1.24328       -1.69020
C         -1.47873       -3.66579       -2.32789
C          4.53280        0.76159       -0.66796
C          3.79560       -0.39969       -1.01187
C          2.46235       -0.45921       -0.64556
C          1.87865        0.54337        0.08303
C          2.61060        1.62437        0.49946
C          3.95397        1.74133        0.17989
O          5.83326        0.96125       -1.20277
C          4.39665       -1.56568       -1.81192
H          1.85021       -1.29141       -0.94494
H          2.11222        2.38389        1.07668
C          4.75246        2.93280        0.73222
C         -2.15763       -5.30823        2.68061
C         -0.03720       -4.31203        3.58791
C         -2.21621       -3.07443        3.74957
C         -0.19591       -3.85777       -3.15408
C         -2.26592       -4.98651       -2.28300
C         -2.38024       -2.62446       -3.02893
C         -0.09996       -6.01764        0.08505
H         -2.44175       -5.73386        3.64274
H         -3.06611       -5.12413        2.10819
H         -1.57482       -6.05685        2.14923
H         -0.22124       -4.78751        4.55097
H          0.58821       -4.97963        2.99820
H          0.52891       -3.39853        3.76747
H         -2.48658       -3.56742        4.68301
H         -1.68745       -2.15866        4.00850
H         -3.13782       -2.79948        3.23783
H          0.35593       -2.92212       -3.23938
H          0.46276       -4.59161       -2.69332
H         -0.42947       -4.20149       -4.16134
H         -1.65628       -5.79557       -1.88783
H         -3.14438       -4.88858       -1.64613
H         -2.59802       -5.28001       -3.27853
H         -1.85509       -1.68780       -3.20819
H         -2.72165       -2.99396       -3.99542
H         -3.25888       -2.40618       -2.42261
H          0.48818       -5.83125        0.98219
H         -0.27723       -7.08883       -0.01326
H          0.45883       -5.66372       -0.77995
C          5.84717        1.66139       -2.44056
C          4.18473       -1.30927       -3.31183
C          5.89547       -1.73669       -1.50658
C          3.70585       -2.89803       -1.43830
C          4.19121        3.37530        2.10303
C          6.22892        2.55709        0.95447
C          4.64785        4.11311       -0.24525
H          3.12328       -1.21096       -3.53869
H          4.67563       -0.39197       -3.62797
H          4.58392       -2.12865       -3.90900
H          6.30572       -2.60042       -2.02923
H          6.46589       -0.86442       -1.81545
H          6.05540       -1.87892       -0.43834
H          4.21423       -3.74151       -1.90486
H          3.72014       -3.05346       -0.35986
H          2.67057       -2.92509       -1.77462
H          4.13324        2.53053        2.78900
H          4.83101        4.13167        2.55710
H          3.19761        3.81124        2.01110
H          6.77938        3.38164        1.40679
H          6.30992        1.69319        1.61334
H          6.72095        2.30877        0.01745
H          5.05452        3.85504       -1.22006
H          5.19350        4.97917        0.12847
H          3.60747        4.40466       -0.38719
H          6.44361        2.56815       -2.34118
H          6.30235        1.03721       -3.20931
H          4.83163        1.92410       -2.73973
