87
-129.18112827
P         -1.54175       -0.28280       -0.42432
P          1.72513        0.29599        0.24928
C         -1.09253        0.96429       -1.63606
C          1.52497       -0.81038       -1.17135
C          0.01134        0.73120       -2.44606
C          0.36798        1.69978       -3.40528
C         -0.40333        2.84490       -3.52208
C         -1.49947        3.05341       -2.71031
C         -1.84222        2.10747       -1.76421
C          2.14588       -2.02736       -1.01216
C          2.03872       -3.00143       -1.98593
C          1.29074       -2.75364       -3.11575
C          0.63852       -1.54506       -3.28920
C          0.76154       -0.54431       -2.30611
Cl         0.93078       -0.09988        3.35104
Cl        -1.65924       -1.89965        2.35174
H         -2.08425        3.95302       -2.81061
H         -2.69913        2.25737       -1.12880
H          2.71202       -2.21679       -0.11220
H          2.52948       -3.95212       -1.85691
H         -0.13037        3.58369       -4.25635
H          1.19321       -3.51277       -3.87327
C         -2.46741       -4.18371       -2.55990
C         -1.65282       -4.20629       -1.43611
C         -1.39085       -3.00811       -0.78349
C         -1.93016       -1.83002       -1.24389
C         -2.74615       -1.81679       -2.35069
C         -3.01803       -3.00037       -3.01172
H         -2.66671       -5.10467       -3.08083
C         -1.03121       -5.47296       -0.96392
H         -0.76006       -3.00053        0.08904
H         -3.15368       -0.88035       -2.69838
H         -3.65146       -2.99691       -3.88357
C         -5.16440        1.09736        1.97240
C         -5.23788       -0.05314        1.21289
C         -4.14084       -0.46639        0.48131
C         -2.98281        0.27479        0.50807
C         -2.90720        1.42028        1.26598
C         -3.99643        1.84627        2.01593
H         -6.01764        1.42128        2.54363
H         -6.14701       -0.63154        1.19399
H         -4.18029       -1.37003       -0.10460
H         -1.99589        1.99223        1.27508
C         -3.91175        3.09009        2.82855
C          6.07722       -0.03954        1.55201
C          5.75613        0.13610        0.22044
C          4.43095        0.23214       -0.16294
C          3.43850        0.15238        0.78684
C          3.75942       -0.02020        2.11175
C          5.08309       -0.12772        2.51619
H          7.10836       -0.10854        1.85433
H          6.53673        0.19947       -0.51989
H          4.16466        0.36331       -1.20007
H          2.97119       -0.07207        2.84087
C          5.42494       -0.29088        3.95561
C          0.81158        4.71491       -0.30138
C          1.68630        4.08681       -1.16578
C          1.97518        2.74534       -0.99974
C          1.37801        2.04303        0.01984
C          0.53799        2.67577        0.90755
C          0.23623        4.02363        0.75564
H          0.57467        5.75655       -0.43613
H          2.13604        4.63816       -1.97516
H          2.65178        2.23837       -1.66836
H          0.15061        2.12868        1.75026
C         -0.70213        4.70557        1.68712
Pd        -0.13575       -0.53570        1.43365
C          1.55458        1.52129       -4.28672
C         -0.18853       -1.33998       -4.51120
H          2.19118        0.70658       -3.93957
H          1.24895        1.29827       -5.30970
H          2.16233        2.42705       -4.30862
H          0.44065       -1.11874       -5.37412
H         -0.77018       -2.23384       -4.74090
H         -0.89203       -0.51645       -4.38511
H         -1.64953       -6.33503       -1.21810
H         -0.04989       -5.61485       -1.41904
H         -0.90176       -5.46556        0.11939
H         -4.71748        3.14010        3.56221
H         -2.96737        3.13565        3.37261
H         -3.98123        3.97421        2.19340
H          5.58007        0.67963        4.42887
H          4.62576       -0.80302        4.49347
H          6.33660       -0.87698        4.07998
H         -0.75975        4.18149        2.64207
H         -0.37965        5.72777        1.89004
H         -1.70571        4.74723        1.26173
