111
-148.55455873
P         -2.54534        2.07310        0.87050
P          0.11788        0.38044        0.52152
C         -1.47868        1.75908        2.30374
C         -0.30269        1.05968        2.13750
C         -3.31903        3.75309        0.94088
C         -2.67158        4.70254       -0.04341
C         -1.84179        2.20470        3.55857
H         -2.77252        2.73220        3.68839
C         -1.01761        1.95671        4.64281
H         -1.30046        2.30444        5.62297
C          0.16449        1.26207        4.47139
H          0.80476        1.06725        5.31594
C          0.52108        0.80781        3.21436
H          1.43227        0.24968        3.06469
Pd        -1.29360        1.44797       -0.96492
Cl        -2.95817        2.26463       -2.22855
Cl         0.05406        0.80967       -2.64551
C         -4.80555        3.45591        0.66890
C         -4.06050        1.01195        0.83299
H         -3.12951        5.69360       -0.00260
H         -1.60305        4.81321        0.15625
H         -2.77659        4.33389       -1.06464
H         -4.99501        3.56586       -0.40779
H         -5.44366        4.20650        1.15968
H         -4.13840        0.63007       -0.19385
C         -5.19252        2.01696        1.11650
C         -3.96026       -0.12771        1.82365
H         -3.18507        4.11510        1.96810
H         -5.40676        2.01367        2.19411
H         -6.12428        1.69135        0.62945
H         -4.86490       -0.74016        1.82178
H         -3.11238       -0.77645        1.59355
H         -3.81726        0.25122        2.83732
C         -1.17525       -3.97423        0.18373
C         -1.12117       -3.36082        1.46213
C         -0.70801       -2.04127        1.54045
C         -0.43405       -1.32020        0.40828
C         -0.59685       -1.87587       -0.83275
C         -1.00026       -3.18987       -0.98459
O         -1.36457       -5.37773        0.07683
C         -1.47104       -4.11467        2.75472
H         -0.58651       -1.55801        2.49361
H         -0.39226       -1.25843       -1.68989
C         -1.20738       -3.74269       -2.40282
C          4.48125        0.82204       -0.69779
C          3.82081       -0.42149       -0.86560
C          2.49460       -0.51340       -0.48096
C          1.85030        0.54202        0.10906
C          2.51226        1.71394        0.36532
C          3.84342        1.87154        0.01321
O          5.76155        1.03014       -1.27622
C          4.49487       -1.64861       -1.49873
H          1.93629       -1.41546       -0.65805
H          1.96650        2.51306        0.83696
C          4.56184        3.18155        0.37291
C         -0.20699       -4.79030        3.30709
C         -2.01819       -3.14275        3.82506
C         -2.56727       -5.16571        2.50229
C          0.12631       -4.29197       -2.93200
C         -2.28208       -4.84449       -2.41961
C         -1.69376       -2.62536       -3.35492
C         -0.15407       -6.12419        0.06773
H         -0.42173       -5.32236        4.23352
H          0.20031       -5.50520        2.59624
H          0.56617       -4.05059        3.51365
H         -2.37419       -3.68999        4.69763
H         -1.25249       -2.45104        4.17295
H         -2.85268       -2.56282        3.43240
H         -2.86206       -5.65530        3.43012
H         -3.45172       -4.70072        2.06802
H         -2.22600       -5.93792        1.81724
H          0.87970       -3.50535       -2.96662
H          0.50677       -5.08633       -2.29406
H          0.01163       -4.69313       -3.93861
H         -2.47366       -5.18978       -3.43525
H         -1.97685       -5.70628       -1.83163
H         -3.21860       -4.47265       -2.00529
H         -1.96813       -3.03650       -4.32601
H         -2.56845       -2.12061       -2.94563
H         -0.92063       -1.87928       -3.53178
H         -0.06672       -6.67056       -0.87116
H          0.70371       -5.46021        0.18256
H         -0.16581       -6.84761        0.88289
C          5.71860        1.53918       -2.60351
C          6.00469       -1.67153       -1.20018
C          3.90227       -2.95512       -0.92116
C          4.25248       -1.63020       -3.01574
C          3.98035        3.78214        1.67313
C          6.06206        2.94224        0.62294
C          4.36987        4.19566       -0.76485
H          6.18362       -1.64224       -0.12590
H          6.46901       -2.57392       -1.59715
H          6.51081       -0.81872       -1.64524
H          4.46242       -3.82178       -1.27149
H          3.94047       -2.94977        0.16783
H          2.86729       -3.10053       -1.22670
H          3.18495       -1.64279       -3.23482
H          4.67163       -0.73601       -3.47090
H          4.70636       -2.49725       -3.49489
H          4.56945        4.63837        2.00094
H          2.95856        4.13211        1.53455
H          3.98508        3.04550        2.47617
H          6.55738        3.85897        0.94193
H          6.20668        2.19086        1.39849
H          6.56385        2.59385       -0.27630
H          3.31094        4.39186       -0.93135
H          4.78771        3.82521       -1.69780
H          4.85630        5.14222       -0.53066
H          4.68539        1.69135       -2.91846
H          6.25642        2.48601       -2.64945
H          6.20530        0.83804       -3.28119
