111
-148.55256243
P         -2.60161        2.02652        0.76349
P          0.17263        0.48144        0.44877
C         -1.48280        1.85496        2.18386
C         -0.26830        1.21993        2.03420
C         -3.60128        3.57985        0.88385
C         -3.49539        4.40027       -0.38250
C         -1.85290        2.34354        3.42083
H         -2.81081        2.82261        3.53996
C         -1.00101        2.20185        4.50267
H         -1.29044        2.58409        5.46796
C          0.21648        1.56765        4.34811
H          0.87825        1.45369        5.19089
C          0.58126        1.06997        3.11026
H          1.52010        0.55550        2.97631
Pd        -1.29497        1.47023       -1.05320
Cl        -2.93931        2.06069       -2.45091
Cl         0.16711        0.81456       -2.63590
C         -5.02295        3.05130        1.16865
C         -3.94988        0.75958        0.74443
H         -2.45638        4.65106       -0.60873
H         -3.89251        3.84459       -1.23317
H         -4.06084        5.33208       -0.30627
H         -5.76378        3.74158        0.73925
H         -5.21241        3.05077        2.25217
H         -3.79213        0.14042       -0.14963
C         -5.22713        1.61415        0.61078
C         -3.90338       -0.09391        1.99277
H         -3.20860        4.14880        1.73709
H         -6.06009        1.11298        1.12510
H         -5.52490        1.67495       -0.44644
H         -4.69185       -0.85034        1.99267
H         -2.94345       -0.60655        2.08335
H         -4.03287        0.52135        2.88516
C         -1.23491       -3.85114        0.30612
C         -1.02947       -3.22413        1.56214
C         -0.58312       -1.91309        1.57687
C         -0.40743       -1.21449        0.41150
C         -0.70225       -1.78510       -0.79780
C         -1.16081       -3.08667       -0.88591
O         -1.47460       -5.24958        0.24250
C         -1.24940       -3.95930        2.89364
H         -0.35779       -1.41829        2.50491
H         -0.55445       -1.19279       -1.68353
C         -1.54734       -3.64203       -2.26516
C          4.58741        0.73055       -0.64434
C          3.83479       -0.42547       -0.97213
C          2.49570       -0.45366       -0.62336
C          1.92000        0.57499        0.07473
C          2.66504        1.65269        0.47644
C          4.01446        1.73907        0.17314
O          5.89819        0.89595       -1.16551
C          4.42721       -1.62009       -1.73554
H          1.87253       -1.28139       -0.91290
H          2.17250        2.43392        1.02906
C          4.82708        2.92785        0.71057
C          0.04565       -4.68143        3.29479
C         -1.62577       -2.96636        4.01682
C         -2.40654       -4.96846        2.78101
C         -2.64264       -4.71704       -2.14673
C         -2.11825       -2.51671       -3.15965
C         -0.29946       -4.22548       -2.94514
C         -0.29620       -6.03070        0.08810
H         -0.07522       -5.20113        4.24494
H          0.33604       -5.41450        2.54623
H          0.86578       -3.97151        3.39976
H         -2.48271       -2.35906        3.72797
H         -1.88874       -3.49906        4.93044
H         -0.79921       -2.30124        4.26230
H         -2.60574       -5.44509        3.74049
H         -3.31878       -4.47102        2.45320
H         -2.17878       -5.75407        2.06465
H         -2.29154       -5.58330       -1.59206
H         -3.51454       -4.32000       -1.62791
H         -2.96096       -5.06233       -3.13004
H         -2.92602       -1.99018       -2.65197
H         -1.35542       -1.78912       -3.43220
H         -2.51610       -2.92464       -4.08842
H          0.13629       -5.02532       -2.35082
H         -0.54280       -4.62889       -3.92768
H          0.46218       -3.45708       -3.07570
H          0.58839       -5.39263        0.10370
H         -0.23397       -6.75881        0.89680
H         -0.33527       -6.57340       -0.85610
C          5.94066        1.56716       -2.41857
C          3.70941       -2.93148       -1.33953
C          4.24022       -1.39661       -3.24399
C          5.91874       -1.80807       -1.40529
C          4.25515        3.41093        2.06311
C          6.29306        2.53015        0.96227
C          4.75834        4.08781       -0.29402
H          3.70776       -3.06141       -0.25761
H          2.67803       -2.94933       -1.68822
H          4.20923       -3.79412       -1.77956
H          4.63685       -2.23510       -3.81581
H          3.18356       -1.28977       -3.48860
H          4.74788       -0.49357       -3.57439
H          6.06195       -1.92553       -0.33167
H          6.32132       -2.69155       -1.90014
H          6.50789       -0.95354       -1.72828
H          3.27086        3.86208        1.94752
H          4.17275        2.58301        2.76689
H          4.90211        4.16600        2.50912
H          6.79376        2.25334        0.03789
H          6.85214        3.35387        1.40545
H          6.34867        1.67893        1.64000
H          5.31521        4.95160        0.06821
H          3.72576        4.39552       -0.45704
H          5.17341        3.80049       -1.25704
H          6.55345        2.46431       -2.33226
H          6.39272        0.91699       -3.16734
H          4.93411        1.84248       -2.73619
