111
-148.54988096
P         -2.65871        1.95429        0.34638
P          0.11497        0.44017        0.45678
C         -1.81647        1.73206        1.93998
C         -0.57543        1.13320        1.96953
C         -3.65533        3.51515        0.32036
C         -2.91684        4.67294       -0.31437
C         -2.39839        2.15809        3.11743
H         -3.37854        2.60437        3.09915
C         -1.72855        1.99343        4.31766
H         -2.18317        2.32688        5.23625
C         -0.48059        1.40109        4.34111
H          0.03929        1.27078        5.27593
C          0.09572        0.96345        3.16239
H          1.05956        0.47854        3.16333
Pd        -1.06838        1.45022       -1.26177
Cl        -2.15237        2.75241       -2.72127
Cl         0.54872        0.71850       -2.64297
C         -4.93486        3.07038       -0.40962
C         -3.99212        0.71546       -0.00688
H         -3.51610        5.58608       -0.29649
H         -1.97598        4.87384        0.20305
H         -2.67811        4.46097       -1.35609
H         -4.78746        3.20097       -1.49078
H         -5.77807        3.72598       -0.14293
H         -3.74960        0.27883       -0.98505
C         -5.26518        1.58052       -0.10484
C         -4.04353       -0.35521        1.06145
H         -3.88930        3.74776        1.36662
H         -5.80870        1.51673        0.84769
H         -5.95029        1.16911       -0.86131
H         -4.84559       -1.07223        0.87132
H         -3.10366       -0.90788        1.11399
H         -4.21779        0.08704        2.04415
C         -1.41504       -3.83531        0.07685
C         -0.96580       -3.14029       -1.07455
C         -0.51101       -1.84370       -0.91786
C         -0.43185       -1.26226        0.31906
C         -0.75338       -1.97084        1.44670
C         -1.21119       -3.27507        1.36404
O         -2.10678       -5.06779       -0.06216
C         -1.00829       -3.74812       -2.48436
H         -0.21769       -1.25571       -1.76898
H         -0.66005       -1.48133        2.39995
C         -1.51417       -4.04169        2.66036
C          4.64728        0.70349        0.13379
C          4.01092       -0.56331        0.16959
C          2.62982       -0.59865        0.25673
C          1.89705        0.55259        0.37904
C          2.51263        1.77444        0.44716
C          3.89197        1.88196        0.36612
O          6.03183        0.79401       -0.16978
C          4.78404       -1.88826        0.07899
H          2.10146       -1.53510        0.21495
H          1.89446        2.64931        0.55390
C          4.54315        3.26807        0.49458
C         -0.81105       -5.27394       -2.43865
C         -2.35433       -3.40589       -3.14112
C          0.12914       -3.17224       -3.35904
C         -0.56877       -3.58431        3.79466
C         -2.96382       -3.76490        3.08698
C         -1.29353       -5.55421        2.47679
C         -3.51632       -4.92554       -0.18755
H          0.12206       -5.52509       -1.93543
H         -1.62082       -5.76282       -1.90283
H         -0.77920       -5.69519       -3.44314
H         -3.18598       -3.81003       -2.56870
H         -2.48872       -2.32613       -3.20328
H         -2.41102       -3.81200       -4.15066
H          1.09282       -3.27970       -2.86180
H          0.18479       -3.69390       -4.31413
H         -0.02593       -2.11746       -3.58067
H         -0.69032       -4.21282        4.67660
H          0.47258       -3.64723        3.47962
H         -0.77270       -2.55980        4.10235
H         -3.20740       -4.29383        4.00802
H         -3.11842       -2.69989        3.25880
H         -3.66755       -4.08183        2.32085
H         -1.98375       -5.97052        1.74741
H         -0.28032       -5.75465        2.12997
H         -1.44336       -6.08896        3.41438
H         -4.01172       -5.45750        0.62449
H         -3.79702       -3.87192       -0.15629
H         -3.84528       -5.36093       -1.13098
C          6.31315        0.91206       -1.55881
C          4.91887       -2.29665       -1.39584
C          6.17471       -1.76557        0.72753
C          4.03329       -3.01044        0.83298
C          5.93974        3.16905        1.13503
C          4.64204        3.91295       -0.89622
C          3.69649        4.18679        1.40468
H          5.45193       -3.24214       -1.49228
H          3.93691       -2.41392       -1.85381
H          5.46080       -1.54552       -1.96528
H          6.08746       -1.43668        1.76253
H          6.69732       -2.72175        0.71821
H          6.79661       -1.04611        0.20095
H          4.63923       -3.91481        0.88336
H          3.80276       -2.70504        1.85332
H          3.10185       -3.27842        0.33624
H          5.88344        2.67269        2.10324
H          6.62449        2.60220        0.50930
H          6.37306        4.15759        1.28512
H          5.25117        3.31214       -1.56708
H          3.65429        4.01164       -1.34583
H          5.08692        4.90585       -0.83588
H          4.21820        5.12310        1.60164
H          3.49751        3.70675        2.36253
H          2.74361        4.44343        0.94432
H          6.86317        1.83469       -1.74332
H          6.93488        0.07615       -1.87892
H          5.38683        0.91862       -2.13476
