171
-217.84087776
P         -1.65695        0.67236        0.24708
P          1.49229       -0.19179       -0.28468
C         -0.93210        1.76034       -0.99869
C          0.62602       -0.93530       -1.67904
C         -0.30714        1.31464       -2.15728
C          0.30340        2.26054       -3.00263
C          0.24649        3.60402       -2.67217
C         -0.37943        4.02747       -1.51971
C         -0.96093        3.09749       -0.67983
C          0.80129       -2.26499       -1.97265
C          0.12941       -2.83561       -3.03546
C         -0.72317       -2.06510       -3.79870
C         -0.91808       -0.72212       -3.51849
C         -0.20782       -0.13760       -2.45220
Cl         2.17300        1.23008        2.57078
Cl        -0.90659        0.60691        3.47970
C         -1.85242        0.08336       -4.35201
C          1.03283        1.85173       -4.23449
H         -0.40725        5.07535       -1.26933
H         -1.43467        3.41086        0.23895
H          1.47185       -2.85699       -1.37397
H          0.26759       -3.87973       -3.26419
H          0.71396        4.32118       -3.32578
H         -1.24244       -2.50576       -4.63257
C         -2.84836       -3.57764       -0.79109
C         -1.81679       -3.39413        0.12267
C         -1.42933       -2.09157        0.41027
C         -2.05606       -1.02637       -0.19396
C         -3.08576       -1.22872       -1.07962
C         -3.50762       -2.51420       -1.39394
H         -3.16633       -4.57437       -1.03203
H         -0.64179       -1.90940        1.11953
H         -3.56979       -0.37117       -1.51256
C         -5.60848        2.52920        1.46836
C         -5.26157        2.48167        0.12342
C         -4.03192        1.92756       -0.21141
C         -3.19679        1.44088        0.76439
C         -3.55737        1.49741        2.08542
C         -4.77178        2.04698        2.46822
H         -6.55808        2.95309        1.73580
H         -3.71134        1.87450       -1.23803
H         -2.87576        1.11701        2.82413
C          3.97316       -3.46103        1.70005
C          2.99503       -2.83747        2.46186
C          2.23258       -1.84872        1.85608
C          2.46119       -1.47648        0.55171
C          3.45476       -2.08977       -0.17287
C          4.22371       -3.10477        0.38228
H          4.55773       -4.24443        2.14636
H          1.45947       -1.36022        2.41765
H          3.62146       -1.77852       -1.18801
C          4.32469        2.93325       -1.94190
C          3.55849        3.25414       -0.82874
C          2.71136        2.27844       -0.32148
C          2.62466        1.04728       -0.92015
C          3.36727        0.75782       -2.03914
C          4.24325        1.69720       -2.57078
H          5.01418        3.66458       -2.32100
H          2.11664        2.47011        0.55280
H          3.23948       -0.20026       -2.51151
Pd         0.26099        0.61016        1.57117
C          0.34474       -4.61658        0.52171
C         -1.15461       -4.56882        0.86001
C         -1.78174       -5.91970        0.46445
C         -1.33989       -4.37395        2.37629
H          0.49291       -4.77199       -0.54624
H          0.83894       -3.68882        0.80153
H          0.84052       -5.43092        1.04943
H         -2.84585       -5.94217        0.69888
H         -1.65619       -6.11379       -0.60064
H         -1.30760       -6.73841        1.00572
H         -0.91301       -5.20739        2.93345
H         -0.85819       -3.45945        2.71832
H         -2.39800       -4.30729        2.62848
C         -4.20647       -3.55884       -3.56574
C         -4.69357       -2.77742       -2.33345
C         -5.34538       -1.46303       -2.80749
C         -5.76090       -3.59983       -1.58662
H         -3.75275       -4.50689       -3.27902
H         -5.03271       -3.77377       -4.24319
H         -3.46277       -2.98422       -4.11543
H         -5.71261       -0.88189       -1.96173
H         -4.63826       -0.85070       -3.36541
H         -6.19288       -1.66513       -3.46228
H         -6.63176       -3.77362       -2.21849
H         -5.37368       -4.57105       -1.28130
H         -6.09316       -3.07483       -0.69116
C         -5.64429        2.88345       -2.36082
C         -6.23109        3.01457       -0.94097
C         -6.51932        4.50246       -0.66936
C         -7.54226        2.20979       -0.87990
H         -4.71514        3.44539       -2.45479
H         -5.44472        1.84123       -2.60910
H         -6.34066        3.27082       -3.10439
H         -7.18868        4.91422       -1.42451
H         -6.98794        4.64484        0.30364
H         -5.59622        5.08166       -0.68440
H         -8.24603        2.55210       -1.63842
H         -7.35155        1.15027       -1.04978
H         -8.02389        2.31101        0.09197
C         -5.17132        0.66081        4.51763
C         -5.13634        2.09545        3.95872
C         -6.51411        2.74519        4.18900
C         -4.07487        2.91801        4.71321
H         -4.19969        0.17681        4.42537
H         -5.44526        0.65938        5.57244
H         -5.89921        0.05517        3.97813
H         -6.75498        2.77417        5.25161
H         -6.53103        3.77022        3.81913
H         -7.30183        2.18281        3.68800
H         -4.01606        3.92991        4.31300
H         -4.31587        2.98714        5.77376
H         -3.08753        2.46615        4.62543
C          1.71618       -2.37126        4.61483
C          2.79703       -3.23388        3.93213
C          4.12138       -3.03467        4.69278
C          2.37111       -4.71040        4.00923
H          1.98056       -1.31438        4.58336
H          0.74716       -2.49720        4.13411
H          1.60141       -2.65162        5.66162
H          4.91130       -3.66598        4.28787
H          4.45151       -1.99841        4.62248
H          4.00619       -3.28166        5.74800
H          2.21527       -5.01829        5.04299
H          1.44100       -4.87105        3.46623
H          3.12784       -5.36353        3.57608
C          5.46218       -3.25212       -1.83641
C          5.30714       -3.83923       -0.41935
C          4.91936       -5.32378       -0.54397
C          6.65821       -3.71120        0.30829
H          5.73800       -2.19860       -1.79449
H          6.24213       -3.77559       -2.38916
H          4.53705       -3.34643       -2.40491
H          3.95558       -5.42866       -1.04223
H          5.66105       -5.87411       -1.12259
H          4.84194       -5.79518        0.43518
H          6.93016       -2.66302        0.43146
H          6.62208       -4.16618        1.29729
H          7.45207       -4.20210       -0.25443
C          5.10917        4.84219        0.33316
C          3.67437        4.64330       -0.18691
C          2.69730        4.80495        0.99492
C          3.34598        5.71961       -1.23799
H          5.21970        5.81510        0.81169
H          5.36183        4.07490        1.06474
H          5.83503        4.78381       -0.47710
H          2.91160        4.08389        1.78343
H          2.77710        5.80101        1.42980
H          1.66559        4.66689        0.67216
H          4.04028        5.68120       -2.07644
H          2.33939        5.57873       -1.63046
H          3.40210        6.71797       -0.80453
C          5.12222        2.51512       -4.79308
C          5.15801        1.37098       -3.76085
C          4.72283        0.07261       -4.46969
C          6.59506        1.19306       -3.24051
H          5.49660        3.44731       -4.37282
H          5.74030        2.27518       -5.65816
H          4.10687        2.68896       -5.14671
H          4.81425       -0.78888       -3.80918
H          3.68935        0.13926       -4.80866
H          5.34696       -0.11943       -5.34232
H          7.27904        0.95122       -4.05381
H          6.95161        2.10350       -2.75947
H          6.64226        0.38791       -2.50742
H         -2.68137       -0.52618       -4.71411
H          2.00774        2.33762       -4.28020
H         -1.34116        0.49806       -5.22153
H         -2.27588        0.91128       -3.78106
H          0.47636        2.13305       -5.12962
H          1.20141        0.77473       -4.26390
