105
-153.05909462
Cl         0.42337        3.65119        1.59849
Pd        -0.12767        1.96619        0.21217
P         -0.71806        0.28427       -1.35758
N          0.14429       -1.13417       -1.98452
C          0.22956       -2.46202       -1.56958
C         -0.10972       -2.94348       -0.27314
C          0.21741       -4.27370        0.07377
C          0.08976       -4.72294        1.51175
C         -0.05886       -6.24326        1.66186
C          1.06061       -6.96291        0.90391
C          1.03772       -6.59996       -0.59064
C          0.73802       -5.14797       -0.88355
C          0.98230       -4.67646       -2.16579
C          0.75566       -3.36538       -2.49317
H          0.99591       -3.01185       -3.48106
H          1.38035       -5.35334       -2.90293
H          1.99712       -6.86042       -1.05564
H          2.02909       -6.67756        1.33376
H         -0.07068       -6.53669        2.72114
H          0.98237       -4.38673        2.05296
C         -0.72243       -2.08199        0.77465
C          0.07854       -1.08134        1.38094
C         -0.40603       -0.39426        2.49347
C         -1.65889       -0.66091        2.97995
C         -2.47841       -1.61581        2.38522
C         -3.83915       -1.85633        2.99644
C         -4.74834       -2.81473        2.20694
C         -3.94393       -3.95162        1.56902
C         -2.87656       -3.38149        0.62531
C         -2.01052       -2.33473        1.28100
H         -2.25461       -4.18732        0.21901
H         -4.60413       -4.65354        1.04010
H         -5.26705       -2.25703        1.41819
H         -4.33739       -0.88710        3.12630
H         -2.02764       -0.11903        3.83435
H          0.20382        0.36572        2.94590
N          1.25193       -0.72263        0.72704
P          1.81781        0.88862        0.95859
C          3.04278        1.29439       -0.28163
C          3.98640        2.25924       -0.02192
C          4.90898        2.59467       -0.99641
C          4.88356        1.97308       -2.23797
C          3.92489        0.99805       -2.47749
C          3.00424        0.66322       -1.50275
H          2.23077       -0.05768       -1.71103
H          3.89886        0.50833       -3.43606
C          5.88698        2.32047       -3.28202
H          5.65442        3.34575       -0.79818
H          3.99340        2.74844        0.93926
C          2.54417        0.95474        2.59776
C          3.27177       -0.13479        3.01350
C          3.85418       -0.13473        4.26898
C          3.71492        0.96029        5.11143
C          2.96676        2.04603        4.67651
C          2.38688        2.04189        3.42273
H          1.80035        2.87817        3.08365
H          2.83904        2.89365        5.32798
C          4.31854        0.95187        6.47278
H          4.41873       -0.98857        4.60254
H          3.36993       -0.98412        2.35521
H          1.11974       -0.84113       -0.27512
H          0.29795       -0.95760       -2.97024
C         -0.68865        1.43684       -2.74739
C          0.46853        2.12271       -3.02795
C          0.50491        3.02033       -4.07848
C         -0.61958        3.23510       -4.86264
C         -1.78324        2.54174       -4.56004
C         -1.81475        1.64494       -3.50828
H         -2.72282        1.11665       -3.27086
H         -2.66768        2.71409       -5.14930
C         -0.59090        4.22548       -5.97419
H          1.40889        3.56496       -4.29173
H          1.34087        1.96542       -2.41854
C         -2.44063       -0.15995       -1.12950
C         -2.97325       -1.08064       -2.00064
C         -4.31649       -1.40510       -1.92628
C         -5.13050       -0.81852       -0.96750
C         -4.57449        0.11026       -0.09767
C         -3.23493        0.44122       -0.18213
H         -2.81215        1.17960        0.47855
H         -5.19938        0.58132        0.64162
C         -6.57746       -1.16352       -0.89836
H         -4.73958       -2.12060       -2.61051
H         -2.33343       -1.53955       -2.73794
Cl        -1.79846        3.24707       -0.58826
H          0.28941       -7.21477       -1.10512
H         -1.03043       -6.55421        1.25767
H          0.98691       -8.05073        1.04334
H         -0.74669       -4.21248        2.00073
H         -3.45617       -4.53929        2.35677
H         -3.36347       -2.93291       -0.24569
H         -3.69296       -2.24556        4.01121
H         -5.54375       -3.21643        2.85035
H          5.46732        2.20993       -4.28293
H          6.22357        3.35283       -3.17718
H          6.76131        1.67221       -3.20981
H          5.22711        0.34856        6.49708
H          4.58321        1.96080        6.79226
H          3.62095        0.53958        7.20305
H         -0.83491        5.22380       -5.60857
H          0.39578        4.26835       -6.43756
H         -1.31070        3.96666       -6.75197
H         -6.72400       -2.24344       -0.94986
H         -7.02654       -0.81147        0.03136
H         -7.12341       -0.70959       -1.72647
