72
-98.10278442
Fe        -0.02461        2.80810       -0.07350
P          1.85606       -0.04098       -0.06238
P         -1.88315       -0.03839        0.07490
C          1.42954        1.59775        0.64567
C          0.43311        1.84536        1.67129
C          0.34429        3.27921        1.88136
C          1.30376        3.91894        0.99942
C          1.99531        2.88032        0.25451
C         -1.43026        1.54670       -0.72268
C         -2.02051        2.85071       -0.46270
C         -1.36508        3.82654       -1.31665
C         -0.34336        3.12268       -2.07163
C         -0.42178        1.70706       -1.75479
C          3.17207       -0.79948        1.00921
C          4.37855        0.08444        0.64800
C          2.97837        0.26857       -1.51753
C          4.35152        0.52125       -0.84822
C         -3.30477       -0.74849       -0.88362
C         -4.48731        0.05681       -0.31982
C         -2.82372        0.28013        1.65043
C         -4.29196        0.41967        1.17997
H         -0.15706        1.08421        2.17727
H         -0.31852        3.78484        2.58763
H          1.49508        4.99252        0.93051
H          2.77256        3.03790       -0.49550
H         -2.83170        3.05142        0.24041
H          0.18796        0.90927       -2.17935
Cl         1.51697       -3.06146       -0.43291
Cl        -1.59756       -3.03038        0.34359
Pd        -0.01072       -1.46227        0.00653
H          3.33675       -1.82055        0.64514
C          2.82436       -0.82336        2.50102
H          2.60766        1.16576       -2.02758
C          3.03364       -0.90276       -2.49527
H          5.32062       -0.42973        0.89443
H          4.35465        0.97405        1.29468
H          4.63949        1.57861       -0.94303
H          5.12120       -0.03163       -1.40496
H         -1.57926        4.89642       -1.35857
H          0.32280        3.57090       -2.81261
H          3.74827       -0.71661        3.08645
H          3.85506       -0.73500       -3.20585
H         -3.39131       -1.80374       -0.60052
C         -3.15375       -0.61745       -2.39539
H         -2.45081        1.22359        2.06645
C         -2.66040       -0.84935        2.66856
H         -5.43127       -0.48849       -0.47480
H         -4.58573        0.97866       -0.91154
H         -4.66470        1.43522        1.37990
H         -4.92118       -0.23808        1.79556
H         -4.11781       -0.84422       -2.87155
H         -2.85026       -1.80327        2.15945
C          2.10111       -2.09376        2.92526
H          1.20824       -2.26706        2.32562
H          2.73781       -2.97064        2.79319
H          1.79673       -2.06414        3.97385
C          1.74298       -1.13654       -3.25762
H          1.44073       -0.24765       -3.81434
H          1.83189       -1.95804       -3.97221
H          0.93468       -1.39151       -2.57537
C         -2.07144       -1.51332       -2.96806
H         -1.10262       -1.26651       -2.53910
H         -2.26449       -2.56362       -2.74178
H         -1.98520       -1.41693       -4.05274
C         -1.30959       -0.88108        3.36153
H         -0.50011       -0.97398        2.63984
H         -1.13496        0.03134        3.93488
H         -1.22483       -1.72192        4.05381
H          2.22877        0.06601        2.74303
H          3.31348       -1.80746       -1.93985
H         -2.95036        0.43294       -2.64150
H         -3.45302       -0.76529        3.42528
