75
-122.81842662
P          1.80880       -0.56926        0.01229
C          3.12641       -1.30158       -0.97303
C          2.86913       -1.86537       -2.20145
C          3.89809       -2.44312       -2.92205
C          5.17707       -2.46192       -2.40233
C          5.42825       -1.90998       -1.16205
C          4.39673       -1.33231       -0.44390
H          4.57337       -0.91458        0.53506
H          6.42455       -1.93132       -0.75194
H          5.97968       -2.91132       -2.96405
H          3.70087       -2.87679       -3.88865
H          1.86644       -1.84899       -2.59651
C          1.68852       -1.57078        1.50111
C          1.64510       -0.98509        2.74544
C          1.64324       -1.77593        3.87931
C          1.68456       -3.15075        3.75834
C          1.72388       -3.73529        2.50796
C          1.72819       -2.94063        1.37555
H          1.77648       -3.38123        0.39209
H          1.75280       -4.80827        2.41314
H          1.67878       -3.76883        4.64124
H          1.60397       -1.31919        4.85449
H          1.60329        0.08852        2.82390
C          2.20516        1.13607        0.43781
C          3.36088        1.78567        0.07201
C          3.52809        3.13630        0.34524
C          2.50043        3.82265        0.99167
C          1.33021        3.18870        1.34575
C          1.18189        1.81882        1.07661
O         -0.00054        1.13604        1.40296
C         -1.19193        1.80848        1.08839
C         -1.35093        3.17604        1.36320
C         -2.53223        3.79888        1.02657
C         -3.56061        3.10428        0.39028
C         -3.38145        1.75716        0.10744
C         -2.21421        1.11863        0.45574
P         -1.80643       -0.57821        0.00849
C         -1.67160       -1.59747        1.48285
C         -1.65761       -1.02740        2.73506
C         -1.64358       -1.83347        3.85815
C         -1.64358       -3.20715        3.71821
C         -1.65384       -3.77551        2.45979
C         -1.67033       -2.96592        1.33809
H         -1.69622       -3.39398        0.34823
H         -1.65060       -4.84748        2.35036
H         -1.62823       -3.83685        4.59274
H         -1.62721       -1.38929        4.83976
H         -1.64911        0.04595        2.82793
C         -3.12579       -1.30127       -0.98151
C         -4.38589       -1.37189       -0.43204
C         -5.42115       -1.93915       -1.15315
C         -5.18391       -2.44029       -2.41749
C         -3.91514       -2.38074       -2.95867
C         -2.88247       -1.81337       -2.23519
H         -1.88822       -1.76420       -2.64816
H         -3.72889       -2.77403       -3.94454
H         -5.98948       -2.88128       -2.98163
H         -6.40947       -1.99159       -0.72687
H         -4.55161       -0.99183        0.56407
Pd         0.00005       -0.02787       -1.43569
Cl        -1.61646        0.99248       -2.63055
Cl         1.63019        0.92988       -2.66315
H         -4.14944        1.21450       -0.41440
C         -4.83203        3.78806        0.03247
H         -4.67561        4.85679       -0.11918
H         -5.57404        3.66436        0.82225
H         -5.24936        3.38103       -0.88950
H         -2.65284        4.84473        1.24724
S         -0.00958        4.05644        2.12211
H          2.61262        4.87061        1.20665
C          4.78705        3.83191       -0.03325
H          4.12857        1.24913       -0.45647
H          5.18709        3.43587       -0.96759
H          4.62060        4.90090       -0.17185
H          5.54659        3.70607        0.73934
