111
-148.55743215
P         -2.63874        1.86653        0.67587
P          0.18464        0.45954        0.48143
C         -1.69124        1.54387        2.18795
C         -0.43788        0.97850        2.09244
C         -3.58275        3.45496        0.77241
C         -2.91471        4.54596       -0.03573
C         -2.21483        1.85094        3.42752
H         -3.20290        2.27511        3.49879
C         -1.47466        1.59690        4.56947
H         -1.88254        1.83630        5.53795
C         -0.21632        1.03446        4.47031
H          0.35808        0.83394        5.35970
C          0.30199        0.71929        3.22714
H          1.27466        0.26266        3.13210
Pd        -1.13527        1.59498       -1.05221
Cl        -2.75113        2.28095       -2.44839
Cl         0.44758        1.23200       -2.60139
C         -4.98165        3.04811        0.27318
C         -4.02365        0.67350        0.38221
H         -2.84628        4.26328       -1.08716
H         -3.47513        5.48226        0.01744
H         -1.89900        4.73707        0.31877
H         -5.03460        3.22741       -0.80960
H         -5.75204        3.69605        0.71841
H         -3.92923        0.35206       -0.66381
C         -5.27849        1.54875        0.56311
C         -3.94551       -0.51344        1.31779
H         -3.62264        3.73149        1.83358
H         -5.63876        1.44056        1.59541
H         -6.09661        1.18050       -0.07440
H         -3.97001       -0.18818        2.35943
H         -4.78103       -1.20012        1.16345
H         -3.01937       -1.07185        1.17089
C         -1.42231       -3.72114       -0.32682
C         -1.03367       -2.89250       -1.41025
C         -0.53880       -1.63303       -1.12374
C         -0.37421       -1.21319        0.16906
C         -0.63867       -2.05200        1.21918
C         -1.12329       -3.33121        1.00430
O         -2.15087       -4.91515       -0.57233
C         -1.19504       -3.31126       -2.87894
H         -0.28960       -0.94360       -1.91131
H         -0.48160       -1.68414        2.21798
C         -1.35347       -4.25151        2.21262
C          4.71322        0.65146        0.07938
C          4.09102       -0.53306        0.55004
C          2.70957       -0.55359        0.64413
C          1.96443        0.56124        0.36150
C          2.56667        1.74041        0.01095
C          3.94436        1.82922       -0.10645
O          6.09747        0.64754       -0.23896
C          4.88225       -1.79704        0.92147
H          2.19004       -1.45292        0.92714
H          1.93873        2.59129       -0.19012
C          4.57635        3.18098       -0.47377
C         -2.57724       -2.86593       -3.38079
C         -0.11274       -2.64296       -3.75757
C         -1.03283       -4.83285       -3.04478
C         -1.18671       -5.73199        1.82507
C         -0.31697       -3.95814        3.32147
C         -2.76101       -4.00663        2.77756
C         -3.56207       -4.73787       -0.57227
H         -2.68909       -1.78541       -3.29198
H         -2.71842       -3.13521       -4.42713
H         -3.37400       -3.32923       -2.80365
H          0.88251       -2.82816       -3.35441
H         -0.14149       -3.03666       -4.77325
H         -0.25856       -1.56618       -3.82894
H         -1.81291       -5.37496       -2.51617
H         -1.08526       -5.12048       -4.09453
H         -0.07183       -5.16133       -2.65036
H         -0.20621       -5.90441        1.38246
H         -1.28415       -6.37874        2.69668
H         -1.93746       -6.04019        1.10187
H          0.69708       -4.00110        2.92470
H         -0.46891       -2.97649        3.76767
H         -0.39321       -4.68975        4.12554
H         -2.95385       -4.64841        3.63681
H         -2.87287       -2.97133        3.09883
H         -3.52587       -4.20570        2.03049
H         -3.96950       -5.04981       -1.53382
H         -4.00942       -5.35741        0.20478
H         -3.81444       -3.69190       -0.39308
C          6.38152        0.28690       -1.58504
C          6.26538       -1.43770        1.49381
C          4.14010       -2.60485        2.01113
C          5.03656       -2.68396       -0.32341
C          5.97724        3.32820        0.14750
C          4.65747        3.30225       -2.00316
C          3.72083        4.34902        0.06747
H          6.88218       -0.93297        0.75451
H          6.16463       -0.77520        2.35284
H          6.80078       -2.33083        1.81497
H          3.89787       -1.97279        2.86515
H          3.21617       -3.03965        1.63250
H          4.75696       -3.42887        2.36903
H          4.06076       -2.96793       -0.71701
H          5.57304       -2.16486       -1.11385
H          5.58424       -3.59605       -0.08770
H          5.93276        3.19998        1.22850
H          6.66731        2.58708       -0.24762
H          6.39675        4.31218       -0.06054
H          3.66563        3.22486       -2.44805
H          5.08643        4.25980       -2.29719
H          5.27233        2.51340       -2.42943
H          3.53319        4.23020        1.13429
H          2.76242        4.41823       -0.44484
H          4.23006        5.30136       -0.07866
H          6.91345        1.10068       -2.07758
H          7.02141       -0.59520       -1.60028
H          5.45761        0.07630       -2.12523
