72
-98.09722187
Fe         0.00113        2.77396       -0.03189
P          1.85775       -0.09773        0.02595
P         -1.85520       -0.09586       -0.02452
C          1.43114        1.55683        0.69265
C          0.44469        1.83527        1.72230
C          0.40007        3.27137        1.93314
C          1.36583        3.88376        1.03948
C          2.01302        2.82512        0.28303
C         -1.41664        1.54513       -0.72089
C         -1.99443        2.82491       -0.34092
C         -1.35866        3.86635       -1.13076
C         -0.38406        3.23326       -2.00002
C         -0.42262        1.80297       -1.74892
C          3.24453       -0.80053        1.03000
C          4.47601       -0.23542        0.30282
C          2.75688        0.08555       -1.58773
C          4.23958       -0.15960       -1.23023
C         -3.25180       -0.79630       -1.01843
C         -4.47693       -0.21278       -0.29504
C         -2.75219        0.12972        1.58597
C         -4.23570       -0.11966        1.23621
H         -0.14840        1.09320        2.25607
H         -0.23775        3.79552        2.64845
H          1.58706        4.95109        0.96746
H          2.80518        2.95445       -0.45750
H         -2.79206        2.97099        0.39078
H          0.17266        1.04923       -2.26395
Cl         1.60440       -3.08485       -0.27713
Cl        -1.65042       -3.02007        0.35237
Pd         0.00577       -1.52533        0.01241
H          3.20680       -1.89022        0.91900
C          3.15480       -0.42298        2.50351
H          2.59606        1.11993       -1.91331
C          2.22306       -0.88617       -2.63437
H          5.36912       -0.83532        0.53731
H          4.68387        0.77017        0.69549
H          4.87801        0.61178       -1.68575
H          4.55881       -1.10619       -1.68674
H         -1.58457        4.93421       -1.08777
H          0.25353        3.73983       -2.72822
H          4.10513       -0.66865        2.99761
H          2.44093       -1.91127       -2.30694
H         -3.22465       -1.88516       -0.89754
C         -3.16109       -0.43434       -2.49582
H         -2.58818        1.17206        1.88341
C         -2.22130       -0.81359        2.65968
H         -5.37507       -0.80897       -0.51941
H         -4.67862        0.78931       -0.69957
H         -4.87263        0.65688        1.68503
H         -4.55328       -1.06102        1.70451
H         -4.11303       -0.67992       -2.98685
H         -1.12659       -0.76156        2.68463
C          2.00331       -1.11210        3.21670
H          2.11283       -2.19782        3.18674
H          1.92969       -0.81520        4.26527
H          1.05259       -0.87653        2.73990
C          2.79442       -0.63974       -4.02246
H          3.88179       -0.73283       -4.02756
H          2.40123       -1.34505       -4.75814
H          2.55648        0.36664       -4.37231
C         -2.01356       -1.13682       -3.20240
H         -1.06128       -0.90120       -2.72864
H         -2.12868       -2.22158       -3.16106
H         -1.93906       -0.85123       -4.25404
C         -2.78820       -0.52292        4.04094
H         -2.54383        0.49199        4.36040
H         -3.87608       -0.60962        4.05074
H         -2.39747       -1.20840        4.79642
H          3.05948        0.66772        2.58492
H          1.12859       -0.82882       -2.66366
H         -3.05997        0.65492       -2.58855
H         -2.44566       -1.84670        2.36368
