75
-122.81504857
P          1.85837       -0.54884        0.00119
C          3.19048       -1.30384       -0.94356
C          4.47278       -1.23987       -0.44728
C          5.50788       -1.84861       -1.13391
C          5.24829       -2.52891       -2.30694
C          3.95714       -2.60893       -2.78942
C          2.92465       -1.99990       -2.10005
H          1.91128       -2.05968       -2.46342
H          3.75290       -3.14406       -3.70220
H          6.05387       -3.00234       -2.84413
H          6.51363       -1.79519       -0.75067
H          4.65618       -0.72844        0.48470
C          1.70804       -1.53080        1.50007
C          1.65681       -0.93464        2.73917
C          1.63260       -1.71579        3.87941
C          1.66022       -3.09193        3.77055
C          1.70722       -3.68725        2.52560
C          1.73332       -2.90213        1.38684
H          1.78847       -3.35163        0.40779
H          1.72507       -4.76124        2.43997
H          1.63745       -3.70242        4.65844
H          1.58727       -1.25043        4.85025
H          1.62747        0.13987        2.80902
C          2.21817        1.16974        0.40494
C          3.35404        1.83918        0.01293
C          3.51117        3.18892        0.29586
C          2.48141        3.86001        0.95435
C          1.32907        3.20711        1.33174
C          1.19304        1.83636        1.06030
O          0.01927        1.14111        1.39755
C         -1.18595        1.80617        1.11623
C         -1.34987        3.16899        1.41111
C         -2.54373        3.78758        1.11295
C         -3.58337        3.09439        0.49427
C         -3.40070        1.75296        0.18849
C         -2.22022        1.11901        0.49822
P         -1.83241       -0.56957        0.00681
C         -1.69114       -1.62344        1.45453
C         -1.67067       -1.08027        2.71850
C         -1.65089       -1.91051        3.82381
C         -1.65052       -3.28087        3.65405
C         -1.66564       -3.82187        2.38362
C         -1.68833       -2.98831        1.27973
H         -1.71810       -3.39461        0.28086
H         -1.66191       -4.89122        2.25108
H         -1.63094       -3.92934        4.51466
H         -1.63031       -1.48780        4.81478
H         -1.66249       -0.00900        2.83409
C         -3.15237       -1.25532       -1.00653
C         -4.40235       -1.38419       -0.44462
C         -5.43780       -1.92570       -1.18505
C         -5.21085       -2.34168       -2.48180
C         -3.95236       -2.22196       -3.03694
C         -2.91946       -1.68062       -2.29415
H         -1.93378       -1.58133       -2.71856
H         -3.77452       -2.54758       -4.04869
H         -6.01660       -2.76252       -3.06089
H         -6.41816       -2.02454       -0.74873
H         -4.55976       -1.06915        0.57527
Pd         0.00735        0.01651       -1.36088
Cl        -1.55676        1.07251       -2.60440
Cl         1.52523        0.51809       -2.94842
H         -4.17817        1.21041       -0.31954
C         -4.86914        3.77236        0.17926
H         -5.30362        3.37941       -0.74089
H         -4.72666        4.84543        0.04560
H         -5.59164        3.62534        0.98300
H         -2.66587        4.82951        1.35082
S         -0.00026        4.05536        2.14549
H          2.57757        4.91141        1.16036
C          4.72748        3.91782       -0.15215
H          4.11428        1.31910       -0.54207
H          5.60096        3.26447       -0.14687
H          4.59777        4.29843       -1.16601
H          4.94264        4.76436        0.50114
