105
-153.06961423
Cl         0.52870        2.10538        2.98863
Pd        -0.30088        1.47279        0.99009
P         -1.23358        0.74997       -1.00875
N         -0.21351       -0.37223       -1.89101
C          0.31329       -1.63085       -1.63532
C          0.24018       -2.28971       -0.38241
C          0.92521       -3.50928       -0.20001
C          0.84582       -4.19036        1.14520
C          1.90690       -5.28050        1.36038
C          2.00503       -6.19586        0.13653
C          2.37688       -5.39225       -1.11921
C          1.62969       -4.08896       -1.25734
C          1.65222       -3.44628       -2.48756
C          1.01376       -2.24782       -2.67187
H          1.07025       -1.75071       -3.62473
H          2.20046       -3.89356       -3.29944
H          3.45203       -5.17736       -1.11487
H          2.72826       -7.00483        0.31225
H          2.88132       -4.80874        1.53894
H          0.93059       -3.43002        1.93117
C         -0.69129       -1.85039        0.68468
C         -0.19666       -1.22702        1.86460
C         -1.08158       -1.02559        2.92897
C         -2.39580       -1.40532        2.83746
C         -2.88916       -2.03976        1.70349
C         -4.33045       -2.49372        1.71596
C         -4.80602       -3.20056        0.43368
C         -3.68102       -4.01224       -0.21486
C         -2.48859       -3.10472       -0.54715
C         -2.02861       -2.28388        0.63177
H         -1.65212       -3.70648       -0.92309
H         -4.04034       -4.53410       -1.11316
H         -5.16328       -2.45420       -0.28462
H         -4.96581       -1.62384        1.92527
H         -3.06349       -1.22489        3.66287
H         -0.72189       -0.53133        3.81420
N          1.12605       -0.77737        1.98098
P          1.75282        0.25660        0.69112
C          2.92384       -0.66355       -0.30815
C          3.53942       -1.74965        0.26500
C          4.48639       -2.46015       -0.45000
C          4.82792       -2.07493       -1.73924
C          4.20392       -0.96494       -2.29426
C          3.26085       -0.25298       -1.57551
H          2.78362        0.61525       -1.99886
H          4.45825       -0.66424       -3.29623
C          5.80872       -2.86758       -2.53062
H          4.95996       -3.32213       -0.01225
H          3.26436       -2.04110        1.26621
C          2.73332        1.61969        1.32868
C          3.55015        1.43043        2.41679
C          4.31101        2.48322        2.89230
C          4.26550        3.72502        2.27219
C          3.43618        3.89255        1.17128
C          2.67671        2.83930        0.69585
H          2.03436        2.96541       -0.16160
H          3.38533        4.85475        0.69096
C          5.05763        4.86883        2.80284
H          4.94299        2.34666        3.75311
H          3.58924        0.46267        2.89051
H          1.34473       -0.29437        2.84312
H         -0.23052       -0.07208       -2.85801
C         -1.05271        2.33147       -1.83848
C         -2.10551        3.21098       -1.92311
C         -1.92035        4.44607       -2.51687
C         -0.68016        4.80727       -3.02712
C          0.37460        3.91093       -2.91699
C          0.18614        2.67520       -2.32508
H          1.00135        1.97633       -2.23291
H          1.34465        4.18797       -3.29307
C         -0.47322        6.15002       -3.63674
H         -2.73895        5.14251       -2.57970
H         -3.06282        2.93385       -1.51237
C         -2.94400        0.25873       -1.24516
C         -3.90958        0.52624       -0.30483
C         -5.22698        0.19070       -0.54979
C         -5.58941       -0.41847       -1.74325
C         -4.60592       -0.66377       -2.69158
C         -3.28819       -0.32183       -2.44323
H         -2.52335       -0.50726       -3.18031
H         -4.87839       -1.12166       -3.62706
C         -7.01061       -0.76828       -2.01698
H         -5.98447        0.40574        0.18446
H         -3.63228        1.02496        0.60738
Cl        -2.26684        2.44356        1.47411
H          2.20390       -5.99537       -2.01975
H          1.69121       -5.86323        2.26707
H          1.03978       -6.69327       -0.02177
H         -0.15625       -4.62023        1.26003
H         -3.35594       -4.80024        0.47602
H         -2.75190       -2.43057       -1.36752
H         -4.46739       -3.16472        2.57257
H         -5.67515       -3.84036        0.64165
H          5.30382       -3.64929       -3.09996
H          6.35031       -2.23438       -3.23471
H          6.54402       -3.34550       -1.88179
H          5.94950        4.52219        3.32665
H          5.38253        5.52920        1.99760
H          4.46381        5.45806        3.50287
H          0.30623        6.12054       -4.39941
H         -1.38643        6.51212       -4.11108
H         -0.17613        6.87692       -2.87959
H         -7.55522       -0.95876       -1.09106
H         -7.51480        0.04342       -2.54307
H         -7.08271       -1.66564       -2.63322
