111
-148.55512933
P         -1.69977        2.82375        0.11594
P         -0.50101       -0.06654        0.52035
C         -1.60565        2.11252        1.78322
C         -1.14974        0.82175        1.94870
C         -0.57786        4.28416       -0.04610
C          0.49026        4.01239       -1.08493
C         -1.96384        2.86090        2.88627
H         -2.28714        3.88048        2.75493
C         -1.88612        2.30433        4.15132
H         -2.16945        2.88710        5.01257
C         -1.44109        1.00602        4.31228
H         -1.37555        0.57509        5.29776
C         -1.06176        0.26520        3.20736
H         -0.68083       -0.73778        3.31737
Pd        -1.34284        1.05319       -1.31729
Cl        -2.58405        1.97338       -2.93920
Cl        -0.81866       -0.75593       -2.55147
C         -1.53435        5.43729       -0.41541
C         -3.32911        3.62853       -0.23455
H          0.03666        3.79402       -2.05401
H          1.15116        4.87277       -1.21447
H          1.10435        3.15100       -0.81298
H         -1.46808        5.61457       -1.49757
H         -1.20260        6.37509        0.05501
H         -3.54068        3.42929       -1.29319
C         -3.01033        5.12152       -0.03878
C         -4.44426        3.08798        0.63468
H         -0.13766        4.44336        0.94696
H         -3.19066        5.38968        1.01123
H         -3.70714        5.74093       -0.62417
H         -4.55750        2.00905        0.50611
H         -4.24477        3.27174        1.69083
H         -5.39991        3.55990        0.39532
C         -0.84380       -4.60287        0.57187
C          0.18740       -3.96375        1.31088
C          0.25903       -2.58073        1.27271
C         -0.68843       -1.84160        0.61321
C         -1.76121       -2.44773        0.01453
C         -1.88976       -3.82694        0.00514
O         -0.78165       -5.99875        0.32691
C          1.23091       -4.71295        2.15659
H          1.07786       -2.06273        1.74387
H         -2.48834       -1.82753       -0.48229
C         -3.15185       -4.42468       -0.63856
C          3.82387        1.17679       -0.16715
C          3.27802        0.08655       -0.89239
C          1.95466       -0.25220       -0.66775
C          1.21597        0.38574        0.29212
C          1.76631        1.37495        1.06414
C          3.08099        1.77054        0.88564
O          5.09695        1.69966       -0.51809
C          4.07773       -0.70702       -1.93677
H          1.46678       -1.00340       -1.26442
H          1.14699        1.84648        1.80626
C          3.67504        2.84281        1.81305
C          1.33856       -4.04366        3.54460
C          0.84701       -6.18348        2.39621
C          2.59941       -4.64540        1.45813
C         -4.39725       -3.66515       -0.13049
C         -3.06134       -4.27588       -2.16674
C         -3.35065       -5.90642       -0.27540
C         -0.04451       -6.31734       -0.84196
H          2.02089       -4.59589        4.19033
H          1.71245       -3.02359        3.47448
H          0.36478       -4.01274        4.03261
H          1.54636       -6.66601        3.07858
H         -0.15162       -6.25472        2.82580
H          0.85127       -6.74902        1.46756
H          3.36159       -5.15775        2.04462
H          2.56339       -5.11091        0.47503
H          2.91797       -3.61202        1.32502
H         -4.39433       -2.62386       -0.44806
H         -5.31128       -4.11791       -0.51391
H         -4.44267       -3.68616        0.95798
H         -2.95374       -3.22940       -2.45045
H         -2.20414       -4.81530       -2.56459
H         -3.95703       -4.66485       -2.65016
H         -3.34641       -6.04100        0.80567
H         -4.29795       -6.28189       -0.66167
H         -2.55848       -6.52432       -0.69133
H         -0.50766       -5.85687       -1.71297
H          0.97606       -5.94870       -0.75316
H         -0.02721       -7.39955       -0.97259
C          5.05161        2.71660       -1.51123
C          5.57338       -0.75389       -1.57588
C          3.58518       -2.17158       -1.99886
C          3.88268       -0.06480       -3.31852
C          5.17466        2.59102        2.05297
C          3.46540        4.23331        1.19498
C          2.98392        2.81403        3.19548
H          6.01641        0.23861       -1.58684
H          5.71423       -1.17105       -0.57929
H          6.12804       -1.37003       -2.28313
H          4.22915       -2.76947       -2.64331
H          3.59071       -2.62418       -1.00783
H          2.57612       -2.24256       -2.40187
H          4.43113       -0.61209       -4.08468
H          2.82860       -0.06097       -3.59529
H          4.22984        0.96565       -3.32715
H          5.74308        2.67605        1.12999
H          5.58494        3.31134        2.76027
H          5.33648        1.59121        2.45440
H          2.40385        4.44622        1.07678
H          3.89431        5.00996        1.82765
H          3.92964        4.30462        0.21460
H          3.48785        3.48204        3.89362
H          3.00434        1.81013        3.61880
H          1.94650        3.14015        3.13427
H          5.60778        2.39511       -2.39154
H          4.01924        2.92973       -1.79160
H          5.51922        3.62273       -1.12625
