171
-217.83520624
P         -1.63710        0.76045        0.28929
P          1.46983       -0.27247       -0.33404
C         -0.88567        1.81726       -0.97101
C          0.50890       -0.96719       -1.69513
C         -0.28928        1.34484       -2.13418
C          0.36300        2.26014       -2.98179
C          0.37064        3.60447       -2.65058
C         -0.23118        4.05649       -1.49601
C         -0.85070        3.15450       -0.65257
C          0.55583       -2.30910       -1.98599
C         -0.19623       -2.82169       -3.02483
C         -1.00652       -1.98496       -3.76369
C         -1.07762       -0.63025       -3.48255
C         -0.28709       -0.10754       -2.44154
Cl         2.27971        1.25083        2.47948
Cl        -0.80299        0.68126        3.47632
C         -1.96813        0.25816       -4.27988
C          1.07466        1.81767       -4.21272
H         -0.20876        5.10453       -1.24574
H         -1.30271        3.48931        0.26953
H          1.16967       -2.96349       -1.39180
H         -0.15558       -3.87389       -3.25419
H          0.86815        4.29893       -3.30646
H         -1.59540       -2.38452       -4.57177
C         -3.00022       -3.46382       -0.64421
C         -3.68885       -2.38399       -1.18156
C         -3.21147       -1.11118       -0.90169
C         -2.10334       -0.93243       -0.11066
C         -1.44435       -2.01349        0.42894
C         -1.87561       -3.30671        0.15662
H         -3.35564       -4.45881       -0.83459
H         -3.72772       -0.24737       -1.28330
H         -0.59003       -1.84417        1.05871
C         -5.49299        2.76474        1.57765
C         -4.64388        2.27713        2.56437
C         -3.45785        1.68254        2.16034
C         -3.13500        1.59085        0.83155
C         -3.98117        2.08422       -0.13129
C         -5.18651        2.67711        0.22493
H         -6.41989        3.22621        1.86200
H         -2.76939        1.29252        2.88765
H         -3.68917        2.00362       -1.16466
C          3.84881       -3.60797        1.66771
C          3.94706       -3.41815        0.29599
C          3.21469       -2.38269       -0.27149
C          2.39502       -1.59156        0.49706
C          2.32008       -1.79826        1.85473
C          3.05130       -2.80437        2.47020
H          4.41665       -4.39728        2.12489
H          3.27772       -2.19035       -1.32749
H          1.69734       -1.16031        2.45132
C          4.46436        2.62696       -2.10925
C          4.29842        1.38041       -2.69985
C          3.37772        0.51068       -2.12683
C          2.66522        0.88033       -1.01233
C          2.83369        2.12161       -0.45335
C          3.73511        3.02649       -0.99676
H          5.19177        3.30325       -2.51839
H          3.19290       -0.45580       -2.56153
H          2.26157        2.37676        0.41954
Pd         0.33068        0.66673        1.53629
C         -4.81854       -1.84804       -3.36129
C         -4.98020       -2.54151       -1.99715
C         -6.14101       -1.88878       -1.22343
C         -5.32168       -4.02339       -2.24359
H         -3.98837       -2.28355       -3.91590
H         -5.72002       -1.95754       -3.96391
H         -4.62665       -0.78248       -3.24338
H         -6.26485       -2.35748       -0.24740
H         -5.95891       -0.82674       -1.06218
H         -7.07946       -1.98825       -1.76854
H         -4.51791       -4.52538       -2.78206
H         -5.49140       -4.54945       -1.30438
H         -6.22873       -4.11688       -2.84070
C         -0.82298       -5.53136       -0.37798
C         -1.19468       -4.54944        0.74969
C         -2.16452       -5.23047        1.73181
C          0.09366       -4.18709        1.50708
H         -0.32713       -6.41470        0.02419
H         -1.70328       -5.86622       -0.92469
H         -0.14400       -5.06262       -1.08880
H         -3.07725       -5.54755        1.22847
H         -1.70810       -6.11066        2.18434
H         -2.44437       -4.54560        2.53212
H          0.57682       -5.08301        1.89586
H          0.80405       -3.69226        0.84748
H         -0.11531       -3.52916        2.34998
C         -5.03261        0.94186        4.64918
C         -4.96712        2.36434        4.06262
C         -6.31723        3.06180        4.31615
C         -3.86076        3.16601        4.77380
H         -4.07945        0.42549        4.54121
H         -5.27881        0.96816        5.71048
H         -5.79305        0.35016        4.13993
H         -6.52894        3.11754        5.38390
H         -6.31169        4.08004        3.92763
H         -7.13523        2.51593        3.84638
H         -4.07149        3.26199        5.83869
H         -2.89082        2.68124        4.66919
H         -3.78068        4.16811        4.35315
C         -7.52293        2.49637       -0.67051
C         -6.16981        3.21566       -0.82383
C         -5.65559        2.97975       -2.25821
C         -6.35730        4.72895       -0.61361
H         -7.40250        1.42007       -0.79199
H         -7.95891        2.67542        0.31155
H         -8.23555        2.84257       -1.41894
H         -5.51518        1.91683       -2.45470
H         -6.36712        3.35918       -2.99144
H         -4.70747        3.49077       -2.42490
H         -6.76709        4.94352        0.37272
H         -5.40403        5.25008       -0.70047
H         -7.03857        5.14468       -1.35582
C          4.85473       -3.92464       -2.02738
C          4.82317       -4.35466       -0.54730
C          4.25274       -5.78202       -0.46339
C          6.26536       -4.33497       -0.00757
H          5.25129       -2.91492       -2.13169
H          5.49047       -4.59080       -2.61044
H          3.85811       -3.95357       -2.46765
H          4.25063       -6.14600        0.56353
H          3.22600       -5.80766       -0.82863
H          4.84277       -6.47473       -1.06320
H          6.31120       -4.69310        1.02005
H          6.91523       -4.97010       -0.60936
H          6.66933       -3.32293       -0.02826
C          4.44954       -2.71373        4.54147
C          3.04001       -3.00143        3.99368
C          2.63873       -4.44883        4.33236
C          2.04377       -2.04753        4.68420
H          5.18484       -3.39510        4.11481
H          4.75522       -1.69637        4.29781
H          4.47832       -2.82519        5.62519
H          2.63788       -4.60906        5.41040
H          1.63875       -4.66992        3.96203
H          3.32768       -5.16772        3.89097
H          2.31268       -1.00546        4.51260
H          1.02926       -2.20603        4.31937
H          2.03588       -2.21034        5.76168
C          6.59546        0.69835       -3.40180
C          5.16466        0.96736       -3.89899
C          5.18762        2.09064       -4.95440
C          4.62398       -0.30981       -4.57307
H          7.24502        0.39537       -4.22282
H          7.02357        1.58980       -2.94410
H          6.60048       -0.09560       -2.65503
H          5.76676        1.78969       -5.82732
H          4.17911        2.32996       -5.28938
H          5.63773        3.00145       -4.56252
H          5.21201       -0.55977       -5.45605
H          4.67170       -1.16415       -3.89890
H          3.58949       -0.17709       -4.88909
C          3.00633        4.67390        0.80003
C          3.95049        4.42075       -0.39248
C          3.67453        5.49044       -1.46496
C          5.40369        4.53888        0.10060
H          3.15743        5.67294        1.20832
H          1.96246        4.59521        0.49718
H          3.18732        3.95965        1.60296
H          2.65318        5.40850       -1.83524
H          3.80597        6.49306       -1.05848
H          4.34808        5.38452       -2.31445
H          6.11064        4.41470       -0.71891
H          5.58439        5.51363        0.55333
H          5.61882        3.77436        0.84693
H         -2.74451       -0.31146       -4.79195
H          1.14222        0.73077       -4.27095
H         -1.40264        0.79925       -5.03897
H         -2.46148        0.99172       -3.64000
H          2.09161        2.21077       -4.22728
H          0.56580        2.17506       -5.10908
