171
-217.83403665
P         -1.63842        0.81603        0.22482
P          1.47576       -0.30364       -0.31650
C         -0.84816        1.85716       -1.02559
C          0.51014       -0.96686       -1.69284
C         -0.20649        1.37007       -2.15870
C          0.48363        2.27257       -2.98948
C          0.46510        3.62297       -2.68498
C         -0.18894        4.09136       -1.56574
C         -0.83196        3.19961       -0.72879
C          0.48567       -2.31454       -1.96132
C         -0.25962       -2.80424       -3.01550
C         -0.99847       -1.93774       -3.79274
C         -1.01336       -0.57874       -3.52537
C         -0.22900       -0.08143       -2.46691
Cl         2.25558        1.33349        2.45095
Cl        -0.78163        0.87102        3.44851
C         -1.84610        0.33909       -4.35145
C          1.26058        1.80992       -4.17259
H         -0.18773        5.14448       -1.33664
H         -1.32061        3.54746        0.16942
H          1.02588       -2.99590       -1.32843
H         -0.27213       -3.86155       -3.22407
H          0.98042        4.30938       -3.33540
H         -1.57911       -2.31741       -4.61617
C         -3.01569       -3.41489       -0.65926
C         -1.92018       -3.24851        0.17927
C         -1.48567       -1.95311        0.43378
C         -2.11166       -0.87918       -0.15720
C         -3.19230       -1.06677       -0.98308
C         -3.67254       -2.34178       -1.24838
H         -3.37383       -4.41101       -0.83845
H         -0.65513       -1.77751        1.09287
H         -3.68544       -0.20775       -1.40386
C         -5.48067        2.87138        1.46744
C         -4.62829        2.41128        2.46456
C         -3.44663        1.79963        2.07319
C         -3.13184        1.66509        0.74613
C         -3.98001        2.13312       -0.22738
C         -5.18107        2.74180        0.11652
H         -6.40459        3.34460        1.74202
H         -2.75403        1.43231        2.80855
H         -3.69228        2.02208       -1.25913
C          3.69140       -3.72329        1.73381
C          3.70900       -3.63082        0.34880
C          3.04863       -2.55983       -0.24017
C          2.36027       -1.64633        0.52240
C          2.36962       -1.75521        1.89307
C          3.03438       -2.79451        2.52817
H          4.21361       -4.53443        2.20702
H          3.06465       -2.43792       -1.30837
H          1.87655       -1.00661        2.48170
C          4.59423        2.52685       -1.99137
C          4.51121        1.23412       -2.49537
C          3.54863        0.38970       -1.95719
C          2.71317        0.82446       -0.95850
C          2.80410        2.10736       -0.48043
C          3.75271        2.98638       -0.98604
H          5.33662        3.19735       -2.38136
H          3.44473       -0.61491       -2.32848
H          2.12896        2.41791        0.29633
Pd         0.31527        0.67355        1.50572
C         -0.85293       -5.48710       -0.25760
C         -1.27265       -4.48017        0.83052
C         -2.28999       -5.13748        1.78022
C         -0.01997       -4.10477        1.64107
H         -0.14049       -5.03669       -0.94721
H         -0.37966       -6.36305        0.18582
H         -1.70898       -5.83058       -0.83660
H         -3.17876       -5.46413        1.24140
H         -1.85802       -6.00831        2.27307
H         -2.60542       -4.43465        2.55116
H          0.43894       -4.99241        2.07575
H          0.72383       -3.63042        1.00394
H         -0.26425       -3.42416        2.45621
C         -5.27629       -3.99008       -2.34022
C         -4.93923       -2.50610       -2.10065
C         -4.73751       -1.82847       -3.46769
C         -6.12031       -1.84209       -1.36844
H         -6.16269       -4.08883       -2.96677
H         -4.45580       -4.50058       -2.84439
H         -5.47972       -4.50409       -1.40104
H         -3.89485       -2.27334       -3.99499
H         -5.62278       -1.94148       -4.09325
H         -4.54441       -0.76233       -3.35745
H         -6.27384       -2.29949       -0.39127
H         -5.93956       -0.77881       -1.21374
H         -7.04276       -1.94519       -1.93955
C         -5.00876        1.14546        4.59383
C         -4.94246        2.54794        3.96104
C         -6.28894        3.25757        4.19961
C         -3.82946        3.36866        4.63939
H         -4.05779        0.62286        4.49720
H         -5.24862        1.20699        5.65513
H         -5.77396        0.53998        4.10851
H         -6.49440        3.34820        5.26619
H         -6.28245        4.26282        3.77863
H         -7.11126        2.69960        3.75214
H         -4.03359        3.49983        5.70181
H         -2.86165        2.87758        4.54495
H         -3.74877        4.35631        4.18596
C         -6.35429        4.77071       -0.77369
C         -6.16765        3.25217       -0.94322
C         -7.52028        2.53760       -0.76570
C         -5.65825        2.97751       -2.37241
H         -5.40125        5.28910       -0.87775
H         -7.03783        5.16618       -1.52483
H         -6.76102        5.01233        0.20763
H         -7.40039        1.45838       -0.85850
H         -7.95249        2.74314        0.21283
H         -8.23559        2.86365       -1.52059
H         -6.37162        3.33827       -3.11324
H         -4.71001        3.48266       -2.55548
H         -5.51980        1.90959       -2.54116
C          4.27697       -4.44972       -1.99464
C          4.42741       -4.70346       -0.48142
C          3.81895       -6.08174       -0.16078
C          5.92589       -4.69794       -0.13031
H          4.77963       -5.22784       -2.56889
H          3.22774       -4.44794       -2.28980
H          4.71828       -3.49523       -2.27943
H          4.29087       -6.86434       -0.75459
H          3.94766       -6.33825        0.89003
H          2.75092       -6.09006       -0.37852
H          6.36493       -3.72169       -0.33559
H          6.08589       -4.92160        0.92380
H          6.46668       -5.44153       -0.71549
C          4.54466       -2.75099        4.52275
C          3.08599       -2.91139        4.05866
C          2.55158       -4.28856        4.49357
C          2.23162       -1.82376        4.74144
H          4.94265       -1.78567        4.21041
H          4.61846       -2.81199        5.60837
H          5.18063       -3.52777        4.09953
H          2.58476       -4.39336        5.57788
H          1.51752       -4.41891        4.17702
H          3.13951       -5.09854        4.06394
H          1.18926       -1.88988        4.43013
H          2.25991       -1.93320        5.82530
H          2.59966       -0.82604        4.50339
C          4.64936        0.13678       -4.75533
C          5.46368        0.69847       -3.57413
C          6.32572       -0.42160       -2.96336
C          6.39602        1.80158       -4.11040
H          3.99798       -0.67753       -4.44058
H          4.02707        0.91290       -5.19941
H          5.30852       -0.24893       -5.53286
H          5.70618       -1.24102       -2.60122
H          7.02080       -0.82618       -3.69883
H          6.90529       -0.04521       -2.12068
H          5.82296        2.62429       -4.53785
H          7.03330        2.19703       -3.31975
H          7.04757        1.41073       -4.89190
C          5.32003        4.57078        0.15748
C          3.91057        4.41312       -0.44161
C          2.87692        4.71731        0.66125
C          3.71578        5.42446       -1.58544
H          5.48059        3.84624        0.95562
H          6.09061        4.41436       -0.59647
H          5.45793        5.56845        0.57388
H          1.85968        4.62262        0.28310
H          2.99462        4.03980        1.50671
H          2.99676        5.73409        1.03462
H          2.72484        5.32127       -2.02529
H          3.81765        6.44717       -1.22287
H          4.45030        5.27638       -2.37607
H         -2.31817        1.10265       -3.73089
H          1.35417        0.72340       -4.19218
H         -2.63829       -0.20132       -4.87118
H         -1.24112        0.84347       -5.10541
H          2.26891        2.22627       -4.15351
H          0.78557        2.12719       -5.10194
