111
-148.54692124
P         -2.64226        1.95128        0.12039
P          0.15011        0.43922        0.43293
C         -1.79570        1.90407        1.73054
C         -0.56717        1.28995        1.84972
C         -3.78745        3.41180        0.04738
C         -3.59361        4.23339       -1.20651
C         -2.39108        2.45869        2.84659
H         -3.36529        2.91094        2.76420
C         -1.74778        2.41122        4.07132
H         -2.21393        2.84664        4.94013
C         -0.51368        1.80141        4.18340
H         -0.01463        1.75966        5.13755
C          0.07462        1.23145        3.06927
H          1.02595        0.72798        3.14432
Pd        -0.97084        1.35039       -1.37741
Cl        -1.91373        2.56181       -3.00051
Cl         0.61715        0.42966       -2.68126
C         -5.18190        2.75844        0.14190
C         -3.86560        0.57027       -0.06274
H         -3.82088        3.63757       -2.09180
H         -4.24938        5.10702       -1.22146
H         -2.56228        4.58103       -1.29908
H         -5.91449        3.37536       -0.39883
H         -5.52076        2.74601        1.18821
H         -3.52287       -0.05152       -0.90148
C         -5.17394        1.30693       -0.41289
C         -3.95200       -0.25236        1.20467
H         -3.57553        4.02774        0.93108
H         -6.03158        0.73837       -0.02462
H         -5.30611        1.33465       -1.50453
H         -4.26872        0.36780        2.04530
H         -4.66986       -1.06998        1.10516
H         -2.98420       -0.68487        1.46366
C         -1.54955       -3.78608        0.41551
C         -1.10373       -3.20015       -0.79881
C         -0.58409       -1.91924       -0.75169
C         -0.42759       -1.25709        0.43683
C         -0.72518       -1.87379        1.62390
C         -1.25209       -3.15437        1.65252
O         -2.36556       -4.94606        0.38635
C         -1.16554       -3.89600       -2.16824
H         -0.30513       -1.41076       -1.65789
H         -0.56928       -1.32876        2.53897
C         -1.48938       -3.80235        3.02650
C          4.68027        0.73492        0.06356
C          4.00200       -0.42181       -0.39717
C          2.62476       -0.46972       -0.26344
C          1.93441        0.54278        0.34896
C          2.59476        1.62112        0.87777
C          3.97408        1.72396        0.79571
O          6.05474        0.92141       -0.24180
C          4.72331       -1.59233       -1.08272
H          2.06322       -1.29656       -0.66190
H          2.01259        2.39208        1.35198
C          4.67682        2.90917        1.47681
C         -2.25647       -3.23336       -3.02626
C          0.19778       -3.74720       -2.87919
C         -1.44890       -5.40325       -2.04894
C         -2.69269       -3.12904        3.70778
C         -1.73654       -5.31747        2.92477
C         -0.23583       -3.60769        3.90775
C         -3.74679       -4.63991        0.28794
H         -2.31090       -3.69516       -4.01166
H         -3.23468       -3.32513       -2.55788
H         -2.05287       -2.17191       -3.16461
H          0.43417       -2.70571       -3.09043
H          0.99764       -4.15672       -2.26326
H          0.20015       -4.27978       -3.82979
H         -1.39119       -5.89205       -3.02121
H         -0.72716       -5.87850       -1.38554
H         -2.44238       -5.58702       -1.64693
H         -3.59873       -3.25166        3.11745
H         -2.87304       -3.55893        4.69269
H         -2.52134       -2.06050        3.83512
H         -2.66435       -5.53139        2.39958
H         -0.92623       -5.80335        2.38239
H         -1.80523       -5.77163        3.91300
H         -0.05205       -2.55667        4.12427
H         -0.34879       -4.12062        4.86255
H          0.64782       -4.00943        3.41267
H         -4.31758       -5.56703        0.23188
H         -4.06742       -4.07265        1.16014
H         -3.93557       -4.04547       -0.60467
C          6.28625        1.62348       -1.45675
C          6.14613       -1.77465       -0.52451
C          3.96901       -2.91868       -0.83466
C          4.77427       -1.33479       -2.59653
C          4.74978        4.09009        0.49727
C          3.89409        3.35635        2.73277
C          6.09075        2.52137        1.94697
H          6.11931       -1.91459        0.55560
H          6.63241       -2.64347       -0.96743
H          6.76868       -0.90823       -0.73277
H          3.00630       -2.93527       -1.34265
H          4.54229       -3.76606       -1.21000
H          3.79820       -3.07489        0.23015
H          3.76823       -1.23194       -3.00286
H          5.31595       -0.41945       -2.82245
H          5.26714       -2.15566       -3.11670
H          5.23232        4.95112        0.95903
H          5.31300        3.82807       -0.39513
H          3.75111        4.39128        0.18193
H          4.45267        4.10871        3.28914
H          2.93333        3.79879        2.47411
H          3.71505        2.51243        3.39854
H          6.56229        3.34092        2.48869
H          6.73364        2.27002        1.10719
H          6.05134        1.65611        2.60785
H          5.33918        1.89588       -1.92438
H          6.86483        2.52459       -1.25417
H          6.86072        0.99636       -2.13828
