111
-148.55210128
P         -2.56104        2.01464        0.79901
P          0.16132        0.41233        0.46015
C         -1.47235        1.76308        2.22972
C         -0.26552        1.11751        2.06421
C         -3.42589        3.64969        0.87934
C         -2.79804        4.66654       -0.04863
C         -1.84621        2.20892        3.48152
H         -2.80004        2.69264        3.61293
C         -1.00330        2.01620        4.56253
H         -1.29505        2.36463        5.53984
C          0.20874        1.37546        4.39173
H          0.86334        1.22251        5.23392
C          0.57613        0.91907        3.13875
H          1.50899        0.39721        2.99172
Pd        -1.27683        1.43081       -1.03030
Cl        -2.89715        2.34068       -2.29332
Cl        -0.11306        0.65241       -2.78851
C         -4.88186        3.27657        0.54551
C         -4.01683        0.87287        0.74624
H         -3.31101        5.62936        0.00859
H         -1.74496        4.82753        0.19383
H         -2.84691        4.33054       -1.08481
H         -5.03110        3.37613       -0.53854
H         -5.57814        3.99295        1.00765
H         -4.04723        0.46702       -0.27391
C         -5.20961        1.81921        0.98126
C         -3.88161       -0.23955        1.76323
H         -3.35286        3.98864        1.92036
H         -5.46589        1.80609        2.04954
H         -6.10346        1.44529        0.45924
H         -4.75354       -0.89768        1.75470
H         -2.99722       -0.84893        1.56616
H         -3.78134        0.16729        2.77121
C         -1.20082       -3.93804        0.32514
C         -1.03210       -3.29191        1.57670
C         -0.58278       -1.98196        1.58408
C         -0.38054       -1.29658        0.41495
C         -0.64838       -1.88402       -0.79271
C         -1.08993       -3.19186       -0.87524
O         -1.45162       -5.33513        0.27321
C         -1.31251       -3.99462        2.91458
H         -0.38850       -1.47356        2.51166
H         -0.50951       -1.29372       -1.68073
C         -1.41768       -3.78102       -2.25595
C          4.55495        0.82447       -0.67438
C          3.76847       -0.21977       -1.22896
C          2.44958       -0.32993       -0.82280
C          1.88517        0.59158        0.01976
C          2.60188        1.67899        0.44805
C          3.93081        1.84500        0.09167
O          5.96598        0.80255       -0.81889
C          4.27448       -1.21456       -2.28727
H          1.84169       -1.14679       -1.17183
H          2.10969        2.40206        1.07608
C          4.64350        3.13249        0.53896
C         -0.03530       -4.69825        3.39721
C         -1.74772       -2.97283        3.99024
C         -2.45946       -5.01199        2.77470
C         -1.90400       -2.67418       -3.22028
C         -0.15326       -4.42315       -2.84674
C         -2.54846       -4.82093       -2.16008
C         -0.27661       -6.13375        0.21207
H          0.29746       -5.44611        2.68159
H          0.77422       -3.98028        3.52688
H         -0.20105       -5.19653        4.35206
H         -2.06190       -3.48151        4.90135
H         -0.93452       -2.30226        4.26386
H         -2.58551       -2.37162        3.63868
H         -3.35686       -4.52771        2.39097
H         -2.19605       -5.81545        2.09132
H         -2.70225       -5.46372        3.73619
H         -2.26449       -3.10513       -4.15390
H         -2.72059       -2.10452       -2.77743
H         -1.10371       -1.98190       -3.47739
H         -0.35147       -4.83944       -3.83405
H          0.64296       -3.68579       -2.94505
H          0.21587       -5.22484       -2.21171
H         -2.82321       -5.19326       -3.14666
H         -2.25185       -5.67545       -1.55706
H         -3.43517       -4.38198       -1.70393
H          0.61354       -5.50352        0.22578
H         -0.25342       -6.81506        1.06242
H         -0.28634       -6.72964       -0.70040
C          6.60954        0.05927        0.20254
C          5.62013       -0.78805       -2.89851
C          4.41668       -2.60828       -1.65353
C          3.25381       -1.28497       -3.44529
C          4.93598        3.05599        2.04640
C          5.95615        3.37093       -0.22773
C          3.73266        4.34879        0.26079
H          5.55869        0.22592       -3.29219
H          6.41477       -0.80968       -2.15654
H          5.91039       -1.45239       -3.71211
H          4.75220       -3.33830       -2.38969
H          5.13853       -2.59672       -0.83880
H          3.46487       -2.95268       -1.25001
H          3.07938       -0.29417       -3.86367
H          3.61603       -1.93001       -4.24529
H          2.29481       -1.68152       -3.11707
H          5.41892        3.96803        2.39624
H          4.01610        2.92353        2.61525
H          5.59250        2.21913        2.27711
H          6.39536        4.33322        0.03424
H          6.69044        2.60168       -0.00032
H          5.78080        3.35790       -1.30288
H          2.82583        4.32246        0.86255
H          3.44085        4.37797       -0.78865
H          4.24779        5.28072        0.49243
H          6.40382        0.50510        1.17441
H          6.24629       -0.96741        0.20306
H          7.68528        0.06172        0.02560
