105
-153.07202504
Cl         0.01063        1.88254        3.05966
Pd        -0.60960        1.14547        1.02335
P         -1.25768        0.50371       -1.13303
N         -0.95088       -1.04942       -1.89483
C          0.07343       -1.96098       -1.62303
C          0.31828       -2.46819       -0.31963
C          1.33619       -3.42496       -0.13000
C          1.55570       -3.99040        1.25335
C          2.43031       -5.25303        1.29699
C          3.64996       -5.10765        0.38265
C          3.21235       -4.87083       -1.07050
C          2.10006       -3.86241       -1.21526
C          1.82081       -3.37429       -2.48534
C          0.82584       -2.45454       -2.68886
H          0.62538       -2.08537       -3.67950
H          2.40440       -3.72733       -3.31876
H          4.06712       -4.54330       -1.67611
H          4.25958       -4.26140        0.72324
H          2.74113       -5.47766        2.32711
H          2.00825       -3.21024        1.87610
C         -0.61839       -2.18115        0.79266
C         -0.14090       -1.59087        1.99631
C         -1.01354       -1.50173        3.08582
C         -2.30977       -1.93733        2.98975
C         -2.79754       -2.50704        1.81996
C         -4.22859       -2.99226        1.81211
C         -4.73299       -3.49665        0.44885
C         -3.63395       -4.25189       -0.30346
C         -2.41656       -3.34462       -0.52962
C         -1.94617       -2.64503        0.72147
H         -1.58701       -3.92663       -0.95020
H         -4.01176       -4.64772       -1.25684
H         -5.06351       -2.64622       -0.15985
H         -4.87314       -2.18268        2.17755
H         -2.97026       -1.84179        3.83497
H         -0.66303       -1.04368        3.99403
N          1.13460       -1.01680        2.09477
P          1.54883        0.17812        0.86603
C          2.66641       -0.41264       -0.39641
C          2.53463        0.06632       -1.67516
C          3.43624       -0.32193       -2.64893
C          4.47904       -1.18520       -2.33916
C          4.61669       -1.62569       -1.02914
C          3.71120       -1.23754       -0.05787
H          3.81360       -1.56986        0.96287
H          5.43642       -2.27547       -0.77472
C          5.45347       -1.60084       -3.38501
H          3.33260        0.04236       -3.65664
H          1.72568        0.73868       -1.90183
C          2.39421        1.60683        1.55534
C          3.19044        1.48060        2.66779
C          3.84520        2.59047        3.17028
C          3.71558        3.82782        2.55336
C          2.90948        3.93214        1.42775
C          2.25606        2.82171        0.92577
H          1.63160        2.89883        0.04918
H          2.79313        4.88915        0.94848
C          4.39453        5.02911        3.11309
H          4.46057        2.50214        4.04928
H          3.30100        0.51690        3.13766
H          1.32653       -0.55857        2.97617
H         -1.23264       -0.92999       -2.85936
C         -0.52733        1.84818       -2.07174
C         -0.57600        3.12019       -1.55128
C          0.01573        4.16714       -2.23226
C          0.64626        3.94890       -3.44965
C          0.67281        2.66054       -3.96682
C          0.08021        1.61521       -3.28276
H          0.10932        0.61428       -3.68012
H          1.16683        2.47997       -4.90628
C          1.31519        5.06874       -4.16789
H         -0.00869        5.16173       -1.82073
H         -1.08909        3.28733       -0.61714
C         -3.04060        0.70569       -1.19115
C         -3.60885        1.53765       -2.12664
C         -4.98255        1.69354       -2.16513
C         -5.79514        1.02289       -1.26123
C         -5.20305        0.17856       -0.33232
C         -3.82967        0.02030       -0.30144
H         -3.36307       -0.62211        0.42584
H         -5.82422       -0.34683        0.37264
C         -7.27527        1.17766       -1.31170
H         -5.43232        2.34252       -2.89703
H         -2.97651        2.06569       -2.82204
Cl        -2.57191        2.22382        1.23205
H          2.88388       -5.81747       -1.51592
H          1.83694       -6.11766        0.97408
H          4.30183       -5.98959        0.45763
H          0.57864       -4.19713        1.70807
H         -3.32960       -5.12897        0.28137
H         -2.65694       -2.58636       -1.28369
H         -4.32153       -3.79393        2.55462
H         -5.62330       -4.12926        0.57253
H          4.97582       -1.66391       -4.36382
H          6.27468       -0.88635       -3.45569
H          5.87740       -2.58077       -3.16090
H          3.75381        5.53209        3.83859
H          5.32412        4.75808        3.61556
H          4.63989        5.74485        2.32723
H          1.30703        4.90581       -5.24653
H          0.81286        6.01730       -3.97299
H          2.35411        5.16642       -3.84988
H         -7.55458        2.18025       -1.63863
H         -7.71641        0.46133       -2.00614
H         -7.72199        1.01406       -0.32999
