171
-217.84616101
P         -1.61247        0.40882       -0.28502
P          1.58052       -0.42099       -0.29777
C         -0.88597        1.33902       -1.63984
C          0.82579       -1.39615       -1.60406
C         -0.11402        0.69707       -2.60171
C          0.51521        1.47383       -3.59371
C          0.32226        2.84538       -3.60375
C         -0.46715        3.45970       -2.65467
C         -1.06487        2.70055       -1.66835
C          0.99552       -2.75892       -1.58632
C          0.38341       -3.54762       -2.54016
C         -0.40937       -2.96102       -3.50393
C         -0.59375       -1.58870       -3.53939
C          0.04758       -0.78275       -2.57918
Cl         1.67300        0.38696        2.82059
Cl        -1.57071       -0.19657        2.94761
C         -1.45584       -0.99249       -4.59668
C          1.37843        0.84979       -4.63386
H         -0.61418        4.52708       -2.67829
H         -1.67638        3.17350       -0.91749
H          1.61140       -3.20916       -0.82513
H          0.52401       -4.61604       -2.52885
H          0.80266        3.43413       -4.36698
H         -0.89850       -3.57239       -4.24347
C         -3.90608       -3.28222       -1.52879
C         -2.90985       -3.40416       -0.56886
C         -2.20957       -2.25885       -0.21210
C         -2.48677       -1.05936       -0.81861
C         -3.46467       -0.95715       -1.77764
C         -4.20266       -2.07526       -2.14931
H         -4.48382       -4.15084       -1.78562
H         -1.45103       -2.28853        0.55059
H         -3.65498        0.00643       -2.21897
C         -4.39234        2.94728        2.24984
C         -3.03974        3.26588        2.22054
C         -2.21082        2.50264        1.40900
C         -2.71545        1.45093        0.68523
C         -4.05148        1.14051        0.74000
C         -4.92209        1.89140        1.51889
H         -5.05573        3.52515        2.86524
H         -1.15664        2.71586        1.35616
H         -4.40814        0.29486        0.18002
C          4.44125       -2.87205        2.23970
C          3.08643       -3.18353        2.27331
C          2.22886       -2.44890        1.46437
C          2.70864       -1.43025        0.67935
C          4.04666       -1.12546        0.67439
C          4.94410       -1.84402        1.45100
H          5.11976       -3.43860        2.84759
H          1.17313       -2.66000        1.45824
H          4.39650       -0.30848        0.06841
C          3.89274        3.17765       -1.75503
C          4.17262        1.93510       -2.30975
C          3.42370        0.84834       -1.87372
C          2.45418        1.01377       -0.91517
C          2.19144        2.24783       -0.37576
C          2.90060        3.36401       -0.80084
H          4.48176        4.02341       -2.05816
H          3.60105       -0.14040       -2.26190
H          1.43757        2.32764        0.38792
Pd         0.00045        0.03327        1.36444
C         -1.40867       -4.70422        1.01250
C         -2.64675       -4.76053        0.09810
C         -2.40041       -5.83023       -0.98256
C         -3.87040       -5.14930        0.94596
H         -0.52954       -4.39198        0.44990
H         -1.55948       -4.00691        1.83611
H         -1.20014       -5.68271        1.44481
H         -3.27459       -5.96483       -1.61806
H         -1.56367       -5.54712       -1.61992
H         -2.16844       -6.79434       -0.53034
H         -3.71220       -6.10513        1.44508
H         -4.06329       -4.39630        1.70994
H         -4.76443       -5.23621        0.32927
C         -6.68128       -2.28593       -2.41949
C         -5.35980       -1.99952       -3.15575
C         -5.15477       -3.04643       -4.26744
C         -5.45387       -0.60643       -3.80815
H         -6.67604       -3.27987       -1.97328
H         -6.84207       -1.56291       -1.62060
H         -7.52914       -2.22929       -3.10191
H         -5.15301       -4.05893       -3.86609
H         -5.95137       -2.98679       -5.00888
H         -4.20703       -2.88939       -4.78016
H         -4.52941       -0.35169       -4.32539
H         -6.26157       -0.57561       -4.53931
H         -5.65636        0.16349       -3.06390
C         -2.04591        5.55520        2.07424
C         -2.44461        4.42269        3.03539
C         -1.20275        3.92711        3.80389
C         -3.45363        4.97481        4.06105
H         -1.33187        5.20324        1.33180
H         -2.91816        5.93337        1.54136
H         -1.59128        6.38587        2.61374
H         -0.79399        4.71593        4.43495
H         -1.45838        3.08153        4.44205
H         -0.41266        3.60593        3.12725
H         -4.32279        5.40809        3.56685
H         -3.79410        4.18873        4.73486
H         -2.99898        5.75838        4.66711
C         -6.75976        1.16714        3.05876
C         -6.41936        1.56516        1.61139
C         -6.80424        0.39964        0.67843
C         -7.24014        2.80273        1.20373
H         -7.81450        0.91045        3.15575
H         -6.17129        0.30340        3.36772
H         -6.54822        1.98040        3.75207
H         -6.27453       -0.51338        0.94991
H         -7.87209        0.19040        0.73997
H         -6.57335        0.63875       -0.35949
H         -7.04935        3.64361        1.86931
H         -6.98854        3.11389        0.18997
H         -8.30850        2.58960        1.23590
C          3.55716       -4.80763        4.17663
C          2.52060       -4.30950        3.15049
C          2.11247       -5.48588        2.24781
C          1.29120       -3.79365        3.92584
H          4.41617       -5.26163        3.68335
H          3.91003       -3.98852        4.80304
H          3.12119       -5.56264        4.83077
H          2.97702       -5.87988        1.71387
H          1.67647       -6.29594        2.83217
H          1.38048       -5.17240        1.50556
H          0.48135       -3.51192        3.25520
H          0.90681       -4.55811        4.60071
H          1.55160       -2.91795        4.51991
C          6.59374        0.00487        1.83382
C          6.43206       -1.46801        1.41137
C          6.96185       -1.65543       -0.02234
C          7.26868       -2.34414        2.36297
H          6.06873        0.67384        1.15287
H          6.19121        0.16396        2.83394
H          7.64397        0.29587        1.84123
H          6.84332       -2.68975       -0.34456
H          6.42405       -1.02302       -0.72744
H          8.01962       -1.40049       -0.08474
H          8.32005       -2.05900        2.32668
H          6.93247       -2.23435        3.39383
H          7.20342       -3.39649        2.08720
C          5.17980        2.80200       -4.44941
C          5.33308        1.78342       -3.30342
C          5.37613        0.36881       -3.91415
C          6.65719        2.03869       -2.56076
H          5.22039        3.82637       -4.08185
H          5.97710        2.68378       -5.18305
H          4.22884        2.66868       -4.96330
H          5.55167       -0.38626       -3.14842
H          4.44233        0.13273       -4.42348
H          6.18157        0.28713       -4.64387
H          6.68643        3.04554       -2.14533
H          6.77949        1.33518       -1.73753
H          7.50941        1.92684       -3.23081
C          3.87845        5.18119        0.61469
C          2.65201        4.75900       -0.21278
C          1.41128        4.76964        0.69992
C          2.42029        5.76799       -1.35357
H          4.77453        5.22269       -0.00376
H          3.73041        6.16555        1.05841
H          4.06123        4.47053        1.42057
H          0.52959        4.43528        0.15425
H          1.55213        4.11999        1.56329
H          1.21311        5.77399        1.07387
H          2.19572        6.75836       -0.95791
H          3.29831        5.85826       -1.99161
H          1.58358        5.45689       -1.97789
H         -2.34712       -1.59866       -4.75805
H          0.84931        0.77181       -5.58455
H         -0.92076       -0.92715       -5.54497
H         -1.78574        0.01082       -4.32380
H          1.69742       -0.15116       -4.34023
H          2.27639        1.44525       -4.79957
