105
-153.06620099
Cl         0.00366        1.99136        3.07685
Pd        -0.47947        1.30645        0.98267
P         -1.08835        0.49421       -1.14211
N         -0.69192       -1.00100       -1.98534
C          0.20425       -2.00959       -1.63745
C          0.32727       -2.49281       -0.31076
C          1.27560       -3.49778       -0.02804
C          1.38333       -4.02160        1.38464
C          2.20102       -5.31467        1.52943
C          3.47371       -5.25735        0.67980
C          3.12357       -5.07104       -0.80379
C          2.07570       -4.01516       -1.05069
C          1.89743       -3.56149       -2.35159
C          0.97796       -2.58830       -2.64256
H          0.86540       -2.23344       -3.65217
H          2.50530       -3.97815       -3.13687
H          4.02398       -4.81729       -1.37797
H          4.09681       -4.41876        1.01539
H          2.44564       -5.50652        2.58372
H          1.82829       -3.23742        2.00791
C         -0.67195       -2.12518        0.72117
C         -0.24718       -1.53826        1.94427
C         -1.17813       -1.40736        2.97910
C         -2.47657       -1.81510        2.81649
C         -2.91382       -2.37791        1.62344
C         -4.34907       -2.83940        1.54005
C         -4.81477       -3.20411        0.12126
C         -3.73682       -4.00184       -0.61687
C         -2.43672       -3.19116       -0.72142
C         -2.01077       -2.53482        0.56976
H         -1.62320       -3.83400       -1.08015
H         -4.08975       -4.30652       -1.61234
H         -5.03254       -2.28792       -0.44106
H         -4.99568       -2.06102        1.96415
H         -3.17867       -1.70103        3.62505
H         -0.86577       -0.95268        3.90279
N          1.04790       -1.02929        2.12086
P          1.59230        0.18675        0.96635
C          2.61784       -0.37587       -0.37941
C          2.43663        0.18579       -1.61840
C          3.26521       -0.18023       -2.66317
C          4.28225       -1.10508       -2.46476
C          4.46957       -1.63271       -1.19356
C          3.63832       -1.26614       -0.15030
H          3.77807       -1.66818        0.84058
H          5.26811       -2.33510       -1.02645
C          5.17811       -1.49894       -3.58653
H          3.12288        0.24814       -3.64044
H          1.64203        0.89823       -1.76099
C          2.51956        1.50798        1.75456
C          3.24148        1.26409        2.89793
C          3.95816        2.28971        3.48754
C          3.95383        3.56374        2.93528
C          3.23489        3.78328        1.76796
C          2.51976        2.75665        1.17855
H          1.95802        2.92462        0.27257
H          3.23693        4.76398        1.32379
C          4.74014        4.66366        3.55921
H          4.52623        2.10591        4.38345
H          3.24932        0.27319        3.32207
H          1.20521       -0.59377        3.02047
H         -0.95591       -0.89754       -2.95711
C         -0.60661        1.88646       -2.17790
C         -0.87588        3.16875       -1.76283
C         -0.49301        4.24483       -2.54017
C          0.15692        4.04484       -3.75005
C          0.42125        2.74429       -4.15667
C          0.03431        1.67081       -3.37579
H          0.24770        0.66394       -3.69284
H          0.93592        2.57757       -5.08758
C          0.59894        5.20296       -4.57525
H         -0.69605        5.24915       -2.20961
H         -1.38992        3.32138       -0.82845
C         -2.88490        0.51948       -1.08340
C         -3.56052        0.76955       -2.25440
C         -4.94410        0.78775       -2.26223
C         -5.65969        0.56677       -1.09357
C         -4.95976        0.30767        0.07613
C         -3.57789        0.27492        0.07680
H         -3.03324        0.07200        0.98457
H         -5.50458        0.13295        0.98794
C         -7.14855        0.56277       -1.10110
H         -5.47653        0.97745       -3.17852
H         -3.00214        0.95113       -3.15955
Cl        -2.31238        2.61880        1.07699
H          2.76731       -6.02026       -1.22151
H          1.59071       -6.16857        1.20956
H          4.08518       -6.15848        0.82953
H          0.37159       -4.17255        1.78178
H         -3.54063       -4.93544       -0.07483
H         -2.55287       -2.41065       -1.48221
H         -4.47031       -3.70732        2.19926
H         -5.76143       -3.76196        0.15082
H          5.52540       -2.52653       -3.46953
H          4.66101       -1.43244       -4.54483
H          6.05361       -0.84971       -3.62988
H          4.27349        5.63279        3.37737
H          4.81443        4.53060        4.63939
H          5.75208        4.69533        3.15311
H          1.60849        5.51134       -4.30016
H          0.60099        4.95204       -5.63691
H         -0.06338        6.05905       -4.43922
H         -7.54057        1.21306       -1.88431
H         -7.53213       -0.44355       -1.27508
H         -7.54709        0.91509       -0.14869
