58
-89.86662077
P          1.68427        0.20610        0.81133
C          2.97553        1.41389        0.50596
C          4.26082        1.00160        0.23865
C          5.24710        1.94076       -0.00328
C          4.93682        3.28624        0.02402
C          3.64517        3.69467        0.29266
C          2.66078        2.75304        0.53519
H          1.64529        3.05568        0.73809
H          4.48579       -0.05246        0.21522
C          2.22063       -1.43900        0.32531
C          2.43044       -1.67120       -1.01518
C          2.80536       -2.92901       -1.44896
C          2.96854       -3.94868       -0.53257
C          2.76130       -3.71184        0.81221
C          2.38629       -2.45202        1.24286
H          2.21716       -2.26140        2.28961
H          2.28625       -0.86236       -1.71448
C          1.28228        0.31987        2.60293
C         -0.02125       -0.34123        3.01887
C         -1.26080        0.40107        2.53856
P         -1.70166       -0.00837        0.80479
C         -1.93043       -1.78970        0.72560
C         -0.92605       -2.58448        0.22451
C         -1.07709       -3.95825        0.20071
C         -2.23557       -4.52976        0.68752
C         -3.23618       -3.73105        1.20543
C         -3.07883       -2.35659        1.23028
H         -3.84402       -1.72280        1.64978
H         -0.01465       -2.13189       -0.12476
C         -3.19694        0.88163        0.34660
C         -4.19875        0.24873       -0.35354
C         -5.32874        0.95183       -0.72977
C         -5.44529        2.28926       -0.40757
C         -4.43283        2.92514        0.28305
C         -3.30328        2.21881        0.65689
H         -2.49810        2.71026        1.17943
H         -4.08474       -0.78854       -0.62312
Pd        -0.02873        0.58755       -0.69658
Cl         1.46701        1.34940       -2.19403
Cl        -1.70095        0.77086       -2.19378
H         -2.13972        0.13751        3.13230
H         -1.12948        1.48077        2.62371
H         -0.04886       -1.37658        2.65363
H         -0.04800       -0.42100        4.11705
H          2.13706       -0.10591        3.13369
H          1.26296        1.38228        2.85374
H          6.25425        1.62200       -0.21607
H          3.40206        4.74435        0.30910
H          2.96551       -3.11192       -2.49874
H          2.88810       -4.50886        1.52635
H         -0.28744       -4.57892       -0.18964
H         -4.13701       -4.17702        1.59391
H         -6.11256        0.45758       -1.27988
H         -4.51845        3.97165        0.52551
H          5.70362        4.01903       -0.16767
H          3.25858       -4.93128       -0.86735
H         -2.35616       -5.60067        0.66968
H         -6.32398        2.83945       -0.70239
