64
-97.21267815
Cl        -1.60338       -1.34713       -2.57270
Cl         1.55981       -1.37975       -2.93421
P          1.93259       -0.64170        0.24668
C          2.13568       -2.31839        1.00815
C          3.71562       -0.24475       -0.09601
P         -1.25780       -0.11705        0.45127
C          1.29429        0.58469        1.44024
C         -0.12893        0.83727        1.53353
C         -0.32832        1.93223        2.47111
C          0.98373        2.37749        2.90691
C          1.98952        1.51327        2.31559
H         -1.28701        2.33154        2.80651
H          1.17715        3.17882        3.62358
Pd         0.15707       -0.94513       -1.24385
H          3.06973        1.57914        2.45508
C         -4.98647        2.16972       -0.86615
C         -4.03590        2.80888       -0.09609
C         -2.90301        2.12638        0.30603
C         -2.71549        0.81371       -0.06542
C         -3.66630        0.17561       -0.82925
C         -4.80368        0.85167       -1.23279
H         -5.87057        2.69957       -1.18145
H         -4.17540        3.83822        0.19115
H         -2.15682        2.62164        0.90097
H         -3.51106       -0.85099       -1.11791
H         -5.54286        0.34998       -1.83553
C         -2.64128       -3.91493        2.52410
C         -2.38595       -2.77830        3.26678
C         -1.97217       -1.61985        2.63349
C         -1.81507       -1.61059        1.26691
C         -2.07495       -2.73737        0.52207
C         -2.48848       -3.89653        1.15137
H         -2.96346       -4.81778        3.01685
H         -2.50734       -2.79294        4.33746
H         -1.76371       -0.72407        3.19688
H         -1.96123       -2.69784       -0.54944
H         -2.69229       -4.78150        0.57122
C          4.05892       -0.32666       -1.56741
H          3.89381        0.76988        0.28370
C          4.46355       -1.29414        0.74962
H          4.66231       -0.89353        1.75451
C          3.64333       -2.60598        0.87074
H          5.45058       -1.49225        0.30669
C          1.65273       -2.30569        2.44228
H          1.54052       -3.01859        0.40599
H          3.98517       -3.19949        1.73085
H          3.82664       -3.23337       -0.01362
H          2.22119       -1.58363        3.03184
H          0.60061       -2.02223        2.50476
H          1.76682       -3.28462        2.91380
H          5.11792       -0.12521       -1.74276
H          3.84489       -1.32445       -1.95354
H          3.48199        0.38382       -2.16101
Fe         0.84043        2.48516        0.85106
C          2.19461        3.20684       -0.48053
C          1.37690        4.29678        0.02656
C         -0.00894        4.01659       -0.30530
C         -0.04327        2.72889       -0.97531
C          1.31560        2.24670       -1.12063
H          3.28442        3.14586       -0.43126
H          1.74549        5.19175        0.53284
H         -0.86794        4.65279       -0.08309
H         -0.92972        2.24765       -1.39339
H          1.61237        1.34208       -1.65378
