105
-153.06525575
Cl        -0.38079        1.26687        3.29753
Pd        -0.83785        1.16062        1.09479
P         -1.39546        0.86438       -1.16817
N         -1.34986       -0.88002       -1.13592
C         -0.17439       -1.62718       -1.28416
C          0.28950       -2.43188       -0.21725
C          1.38156       -3.29454       -0.40758
C          1.83273       -4.15615        0.74456
C          2.71332       -5.34258        0.32344
C          3.79862       -4.89527       -0.66123
C          3.17959       -4.27041       -1.92264
C          2.01778       -3.34756       -1.64927
C          1.56095       -2.53518       -2.68133
C          0.49568       -1.68902       -2.50516
H          0.15296       -1.07559       -3.31650
H          2.06027       -2.57637       -3.63456
H          3.94280       -3.71768       -2.48494
H          4.44859       -4.16086       -0.17036
H          3.16048       -5.82891        1.20192
H          2.37499       -3.52522        1.45846
C         -0.43914       -2.41519        1.07236
C          0.10373       -1.72853        2.18804
C         -0.55030       -1.84517        3.41619
C         -1.72566       -2.54249        3.52986
C         -2.29649       -3.18094        2.43532
C         -3.61406       -3.89244        2.62922
C         -4.01225       -4.82280        1.47091
C         -3.68738       -4.18621        0.11574
C         -2.18584       -3.88225        0.01055
C         -1.64303       -3.13243        1.20239
H         -1.62502       -4.81860       -0.09457
H         -4.25414       -3.25282        0.00755
H         -5.07762       -5.08673        1.53027
H         -4.39398       -3.13562        2.77616
H         -2.23162       -2.58709        4.47947
H         -0.14421       -1.33035        4.26928
N          1.22370       -0.89703        2.09225
P          1.38644        0.35684        0.84300
C          2.64777       -0.16763       -0.32492
C          3.64883       -0.98610        0.14067
C          4.69225       -1.34516       -0.69408
C          4.73311       -0.89206       -2.00555
C          3.72208       -0.05268       -2.45194
C          2.68703        0.30976       -1.61117
H          1.90301        0.95497       -1.95988
H          3.74930        0.31534       -3.46340
C          5.85482       -1.26992       -2.90860
H          5.48368       -1.97706       -0.32937
H          3.60727       -1.34317        1.15710
C          2.13966        1.78364        1.66386
C          3.21447        1.53569        2.48545
C          3.84201        2.57903        3.14262
C          3.40182        3.88423        2.97629
C          2.31224        4.11683        2.14932
C          1.68849        3.07245        1.49326
H          0.83426        3.26613        0.86855
H          1.95035        5.12354        2.02717
C          4.05509        5.00610        3.70577
H          4.67830        2.38361        3.79192
H          3.56482        0.52379        2.61183
H          1.48217       -0.43240        2.95312
H         -1.87722       -1.05205       -0.28980
C         -0.42194        1.62478       -2.45945
C          0.45182        2.64160       -2.15375
C          1.21064        3.21818       -3.15549
C          1.09094        2.78576       -4.46926
C          0.16994        1.78895       -4.76349
C         -0.58939        1.21384       -3.76014
H         -1.32078        0.45334       -3.98574
H          0.04931        1.46688       -5.78368
C          1.90181        3.41429       -5.54834
H          1.90513        4.00683       -2.92109
H          0.54714        2.97132       -1.13362
C         -3.09666        1.37314       -1.39297
C         -3.39703        2.71006       -1.49792
C         -4.71338        3.10572       -1.65500
C         -5.73275        2.16449       -1.71377
C         -5.40759        0.81933       -1.59951
C         -4.09072        0.42616       -1.44277
H         -3.83297       -0.61683       -1.35972
H         -6.19175        0.08227       -1.62959
C         -7.15226        2.59309       -1.85031
H         -4.95750        4.15181       -1.72683
H         -2.60209        3.43776       -1.44942
Cl        -2.99280        1.65772        1.48918
H          2.83883       -5.06480       -2.59734
H          2.08742       -6.10900       -0.15063
H          4.45486       -5.73682       -0.92465
H          0.94922       -4.51614        1.28684
H         -4.01778       -4.83095       -0.71089
H         -1.98001       -3.31673       -0.90593
H         -3.57407       -4.45633        3.56991
H         -3.46966       -5.77212        1.56310
H          5.49978       -1.43015       -3.92769
H          6.61227       -0.48541       -2.93473
H          6.33601       -2.19130       -2.57742
H          3.98956        5.93567        3.13860
H          3.57817        5.16779        4.67339
H          5.11178        4.79964        3.88137
H          2.04496        2.72850       -6.38459
H          1.41166        4.31152       -5.92868
H          2.88917        3.69906       -5.18195
H         -7.59565        2.77888       -0.87114
H         -7.23192        3.51021       -2.43563
H         -7.74862        1.82870       -2.35042
