58
-89.86640466
P          1.68323        0.55462        0.83847
C          3.05459        1.57699        0.29937
C          2.83519        2.91191        0.04895
C          3.88185        3.71161       -0.37496
C          5.13969        3.16672       -0.54317
C          5.35413        1.82613       -0.28977
C          4.30574        1.02893        0.13294
H          4.45597       -0.02026        0.32986
H          1.84459        3.31997        0.17626
C          2.10735       -1.19485        0.73603
C          2.19846       -2.00671        1.84462
C          2.48633       -3.35054        1.69061
C          2.68619       -3.87470        0.42894
C          2.60318       -3.05753       -0.68026
C          2.31332       -1.71517       -0.52202
H          2.23341       -1.06200       -1.37699
H          2.04856       -1.59589        2.82855
C          1.20464        1.09125        2.54019
C         -0.28686        1.03213        2.83903
C         -0.93621       -0.30655        2.50244
P         -1.59769       -0.26577        0.78910
C         -1.91499       -1.92197        0.16513
C         -3.10188       -2.21265       -0.46798
C         -3.32128       -3.48198       -0.97189
C         -2.34569       -4.45105       -0.84451
C         -1.15093       -4.15188       -0.22067
C         -0.93634       -2.88177        0.28220
H          0.00431       -2.62754        0.74034
H         -3.84711       -1.44192       -0.57841
C         -3.09881        0.72365        0.80896
C         -3.13758        1.95736        0.20007
C         -4.29630        2.71113        0.24442
C         -5.40819        2.22616        0.90402
C         -5.36346        0.99158        1.52079
C         -4.20269        0.23994        1.47482
H         -4.15174       -0.72438        1.95583
H         -2.26513        2.32428       -0.31574
Pd        -0.03401        0.50976       -0.73070
Cl         1.50405        1.09652       -2.26187
Cl        -1.72061        0.51434       -2.21681
H         -0.23178       -1.13199        2.60539
H         -1.78613       -0.52773        3.15273
H         -0.45302        1.27817        3.89989
H         -0.80732        1.82299        2.27901
H          1.76625        0.46931        3.23863
H          1.58599        2.10759        2.66724
H          3.71341        4.75650       -0.57755
H          6.33491        1.40032       -0.42394
H          2.55426       -3.98875        2.55638
H          2.75764       -3.46352       -1.66636
H         -4.24995       -3.71137       -1.46810
H         -0.38218       -4.90187       -0.13302
H         -4.33079        3.67421       -0.23786
H         -6.23013        0.61352        2.03774
H          5.95498        3.78839       -0.87565
H          2.90861       -4.92261        0.31007
H         -2.51397       -5.43970       -1.23943
H         -6.31207        2.81233        0.93787
