72
-108.39952942
Cl        -1.86666        0.21062        2.79997
Cl         0.93739       -1.14764        2.71099
P          1.22626       -1.01014       -0.32162
P         -2.23325        0.18728       -0.37421
C         -3.39285       -1.31161       -0.28535
C         -4.10692       -1.30074        1.06288
C         -4.42480       -1.28345       -1.42107
C         -3.16096        1.83513       -0.10934
C         -4.51376        1.79204       -0.81188
C         -1.42753        0.38576       -2.06519
C         -1.32989       -0.86208       -2.92471
C          1.15357        0.33075       -1.54775
C         -0.05525        1.03858       -1.97562
C          0.38226        2.18530       -2.77463
C          1.83028        2.16844       -2.85049
C          2.30402        1.01968       -2.10250
C         -2.54810       -2.58068       -0.37760
H         -3.39254       -1.28529        1.88566
H         -4.76369       -0.43842        1.16300
H         -5.28389       -0.66275       -1.17230
H         -4.81303       -2.28468       -1.61507
C         -3.36115        2.11990        1.37420
H         -4.96993        2.78335       -0.82540
H         -5.20829        1.13231       -0.29497
H         -2.10178        1.08389       -2.57446
H         -2.28432       -1.36164       -3.07667
H         -0.64032       -1.57521       -2.48206
H         -0.93058       -0.62140       -3.91196
H         -0.27549        2.86418       -3.32053
H          2.45357        2.87605       -3.40168
Pd        -0.52346       -0.45534        1.13242
H          3.34444        0.73342       -1.93391
C         -2.32608        2.95785       -0.72208
H         -4.41170        1.46245       -1.84619
H         -2.40543        2.24386        1.88078
H         -3.93060        3.03913        1.51983
H         -3.90027        1.31553        1.87107
H         -2.34278        2.92969       -1.81122
H         -2.70631        3.93572       -0.42130
H         -1.29208        2.88595       -0.39886
H         -4.72418       -2.19331        1.17810
H         -4.00573       -0.90152       -2.34929
H         -3.17897       -3.46886       -0.31322
H         -2.00066       -2.64154       -1.31484
H         -1.83059       -2.63738        0.44038
C          2.92036       -1.07974        0.31401
C          3.42075       -2.12294        1.05226
C          4.74523       -1.81020        1.35849
C          5.00015       -0.58666        0.78979
O          3.88878       -0.12744        0.14388
H          2.88148       -3.00934        1.34412
H          5.43273       -2.41066        1.93154
H          5.93987       -0.05039        0.83767
C          0.83124       -2.64627       -0.96261
C          0.55606       -3.69783       -0.12465
C          0.29404       -4.80577       -0.93191
C          0.42257       -4.38167       -2.23216
O          0.75047       -3.05609       -2.26575
H          0.54150       -3.65655        0.95319
H          0.04191       -5.79943       -0.59940
H          0.28635       -4.99551       -3.11391
Fe         1.21939        2.23665       -0.89109
C          2.84462        2.64124        0.26073
C          1.85599        1.92247        1.03803
C          0.63466        2.69864        1.02835
C          0.86572        3.90314        0.25110
C          2.23533        3.86520       -0.22872
H          3.87496        2.31864        0.09389
H          2.00404        0.97702        1.56433
H         -0.26719        2.44354        1.58667
H          0.15527        4.71843        0.09591
H          2.72990        4.63554       -0.82521
