105
-153.06185467
Cl         0.19828        3.42634        1.93603
Pd        -0.14886        1.92685        0.30106
P         -0.71894        0.28018       -1.31457
N          0.14544       -1.12477       -1.96595
C          0.22826       -2.45885       -1.57792
C         -0.10657       -2.95470       -0.28755
C          0.19713       -4.29653        0.03399
C          0.05931       -4.77090        1.46270
C         -0.11184       -6.29146        1.58385
C          0.99771       -7.01334        0.81359
C          0.98182       -6.62232       -0.67391
C          0.70344       -5.16096       -0.93993
C          0.95456       -4.66990       -2.21363
C          0.74352       -3.35073       -2.51816
H          0.98340       -2.98316       -3.50096
H          1.34282       -5.33897       -2.96303
H          1.93794       -6.88785       -1.14280
H          1.96982       -6.75040        1.24952
H         -0.12938       -6.60466        2.63737
H          0.95477       -4.45760        2.01284
C         -0.68590       -2.09446        0.77955
C          0.14506       -1.12192        1.39541
C         -0.30735       -0.45943        2.53714
C         -1.55823       -0.71411        3.03621
C         -2.41033       -1.62858        2.42379
C         -3.76927       -1.85365        3.04516
C         -4.71409       -2.76331        2.23914
C         -3.94875       -3.89715        1.54953
C         -2.87928       -3.32206        0.61131
C         -1.97518       -2.32521        1.29258
H         -2.28579       -4.12883        0.16595
H         -4.63449       -4.56191        1.00532
H         -5.23344       -2.16785        1.47882
H         -4.24033       -0.87658        3.21219
H         -1.90159       -0.18958        3.91173
H          0.32418        0.27749        2.99849
N          1.30019       -0.74022        0.71857
P          1.83512        0.87821        0.98711
C          2.90481        1.41409       -0.34084
C          3.15001        2.75718       -0.50029
C          3.88971        3.19326       -1.58465
C          4.37469        2.28709       -2.51875
C          4.12240        0.93419       -2.33299
C          3.38257        0.49919       -1.24843
H          3.16633       -0.54818       -1.11398
H          4.50134        0.22428       -3.04821
C          5.17588        2.75343       -3.68400
H          4.08426        4.24367       -1.71782
H          2.73423        3.45675        0.20813
C          2.68562        0.91886        2.56439
C          2.49518        1.93779        3.46597
C          3.17046        1.92744        4.67113
C          4.03750        0.88943        4.98502
C          4.22235       -0.12904        4.05934
C          3.54428       -0.11495        2.85284
H          3.67318       -0.90902        2.13365
H          4.90009       -0.93351        4.28856
C          4.78523        0.88935        6.27293
H          3.02707        2.72711        5.37764
H          1.80922        2.73142        3.22460
H          1.14247       -0.82610       -0.28490
H          0.37233       -0.91213       -2.92954
C         -0.61097        1.45811       -2.67097
C         -1.71728        1.85733       -3.38151
C         -1.57921        2.76857       -4.41215
C         -0.33267        3.28846       -4.73488
C          0.77410        2.86301       -4.01338
C          0.63207        1.95185       -2.98321
H          1.48794        1.63023       -2.41378
H          1.74769        3.25134       -4.25887
C         -0.18082        4.25462       -5.85770
H         -2.44277        3.08535       -4.97165
H         -2.68623        1.46429       -3.12208
C         -2.44710       -0.16490       -1.14875
C         -2.97592       -1.01136       -2.09395
C         -4.31787       -1.34614       -2.04595
C         -5.13533       -0.83871       -1.04572
C         -4.58271        0.01709       -0.10186
C         -3.24288        0.35289       -0.15473
H         -2.81815        1.02432        0.57314
H         -5.20854        0.42359        0.67403
C         -6.57743       -1.20684       -0.99806
H         -4.73753       -2.00873       -2.78346
H         -2.33349       -1.40819       -2.86432
Cl        -1.88744        3.12815       -0.47005
H          0.22537       -7.21657       -1.20049
H         -1.08742       -6.58023        1.17286
H          0.90780       -8.10236        0.93265
H         -0.77183       -4.25808        1.95819
H         -3.46653       -4.52555        2.30873
H         -3.36512       -2.82630       -0.23485
H         -3.62009       -2.27827        4.04520
H         -5.50786       -3.16787        2.88278
H          6.24261        2.72176       -3.45836
H          4.99747        2.12685       -4.55907
H          4.91905        3.77865       -3.95431
H          4.21167        1.37916        7.06108
H          4.99981       -0.12776        6.60385
H          5.73429        1.41710        6.16963
H         -1.06870        4.87993       -5.96102
H          0.67166        4.91573       -5.69560
H         -0.02587        3.73046       -6.80173
H         -6.70167       -2.29070       -0.98647
H         -7.06175       -0.80702       -0.10615
H         -7.10612       -0.81615       -1.86856
