105
-153.06303198
Cl         0.13014        2.26177        2.91987
Pd        -0.37944        1.41914        0.88827
P         -1.09506        0.49569       -1.16743
N         -0.62156       -0.98297       -2.00163
C          0.23454       -2.01042       -1.61376
C          0.31974       -2.46967       -0.27580
C          1.24854       -3.48104        0.04848
C          1.31908       -3.97589        1.47388
C          2.11673       -5.27561        1.66370
C          3.40764       -5.25244        0.84036
C          3.09116       -5.09440       -0.65404
C          2.06232       -4.03135       -0.94581
C          1.91585       -3.60485       -2.25984
C          1.01863       -2.62337       -2.59007
H          0.93431       -2.28651       -3.60859
H          2.53271       -4.04763       -3.02351
H          4.00662       -4.86421       -1.21418
H          4.03399       -4.41424        1.17088
H          2.33654       -5.44770        2.72682
H          1.76083       -3.18408        2.08974
C         -0.70774       -2.08121        0.72013
C         -0.32290       -1.47108        1.94395
C         -1.28593       -1.32353        2.94598
C         -2.57337       -1.75485        2.75910
C         -2.96872       -2.35374        1.56933
C         -4.38999       -2.85155        1.46103
C         -4.81646       -3.23391        0.03485
C         -3.71060       -4.02427       -0.66893
C         -2.41702       -3.20010       -0.74812
C         -2.03624       -2.51391        0.54223
H         -1.58632       -3.84083       -1.06923
H         -4.03482       -4.34087       -1.67043
H         -5.03112       -2.32522       -0.54053
H         -5.06498       -2.08862        1.86849
H         -3.29815       -1.63500        3.54654
H         -1.00382       -0.85024        3.87010
N          0.97453       -0.99064        2.17386
P          1.63136        0.21422        1.07059
C          2.58663       -0.33261       -0.33160
C          2.36261        0.26345       -1.54809
C          3.14652       -0.08264       -2.63339
C          4.16125       -1.02132       -2.49910
C          4.39239       -1.58442       -1.25053
C          3.60648       -1.23784       -0.16612
H          3.78247       -1.66582        0.80809
H          5.18932       -2.29864       -1.13336
C          5.00875       -1.39253       -3.66529
H          2.97199        0.37312       -3.59284
H          1.57045        0.98714       -1.64282
C          2.64855        1.42854        1.91477
C          3.26844        1.11393        3.10033
C          4.05777        2.05735        3.73290
C          4.22883        3.32025        3.18170
C          3.61084        3.61039        1.97278
C          2.82272        2.66561        1.34061
H          2.33963        2.88854        0.40185
H          3.74934        4.58171        1.52958
C          5.09398        4.33001        3.85203
H          4.54705        1.81716        4.66137
H          3.14263        0.13069        3.52343
H          1.09661       -0.55577        3.07927
H         -0.88142       -0.90546       -2.97721
C         -0.70484        1.88614       -2.24557
C         -1.10747        3.15301       -1.89669
C         -0.81014        4.22606       -2.71468
C         -0.09911        4.03946       -3.89190
C          0.28864        2.75245       -4.23835
C         -0.01417        1.68177       -3.41744
H          0.29715        0.68646       -3.68592
H          0.82957        2.59394       -5.15568
C          0.20466        5.19109       -4.78582
H         -1.12865        5.21768       -2.44197
H         -1.65193        3.29629       -0.97844
C         -2.88960        0.44072       -1.09246
C         -3.58086        0.56938       -2.27405
C         -4.96427        0.53550       -2.27182
C         -5.66465        0.37371       -1.08446
C         -4.94962        0.25608        0.09880
C         -3.56721        0.27257        0.09009
H         -3.00895        0.16900        1.00697
H         -5.48252        0.15455        1.02855
C         -7.15342        0.36491       -1.07361
H         -5.50862        0.64128       -3.19461
H         -3.03484        0.70199       -3.19517
Cl        -2.32200        2.56417        1.00854
H          2.73174       -6.04808       -1.05869
H          1.50233       -6.12856        1.34913
H          4.00444       -6.15742        1.02259
H          0.29727       -4.10569        1.85223
H         -3.51787       -4.95140       -0.11466
H         -2.51715       -2.43573       -1.52739
H         -4.50206       -3.71966        2.12161
H         -5.75676       -3.80309        0.04607
H          5.87869       -0.73829       -3.73635
H          5.36536       -2.42012       -3.58072
H          4.44962       -1.31302       -4.59869
H          6.12392        4.25205        3.50116
H          4.74471        5.34344        3.64956
H          5.09516        4.19129        4.93405
H         -0.60137        5.34689       -5.50413
H          0.32825        6.11157       -4.21352
H          1.12629        5.02340       -5.34491
H         -7.54529        1.37403       -0.93899
H         -7.55209       -0.02968       -2.00936
H         -7.53684       -0.25642       -0.26283
