111
-148.55553191
P         -2.55144        2.06779        0.90594
P          0.11615        0.40666        0.53675
C         -1.46813        1.77956        2.33067
C         -0.28970        1.08619        2.15667
C         -3.35038        3.73590        0.95474
C         -2.74854        4.65835       -0.08286
C         -1.82041        2.23367        3.58543
H         -2.75261        2.75732        3.72041
C         -0.98256        1.99960        4.66230
H         -1.25632        2.35413        5.64261
C          0.20155        1.31008        4.48340
H          0.85236        1.12631        5.32236
C          0.54731        0.84765        3.22627
H          1.46068        0.29487        3.07074
Pd        -1.29653        1.49881       -0.93279
Cl        -2.88689        2.15705       -2.37120
Cl         0.06607        0.88535       -2.62086
C         -4.84040        3.41128        0.73534
C         -4.04909        0.98253        0.89256
H         -2.87805        4.24883       -1.08596
H         -3.22194        5.64285       -0.06494
H         -1.67650        4.79349        0.07981
H         -5.06857        3.51202       -0.33472
H         -5.47407        4.15413        1.24327
H         -4.14090        0.60401       -0.13442
C         -5.18977        1.96935        1.20277
C         -3.91457       -0.15935        1.87631
H         -3.18863        4.13197        1.96527
H         -5.37263        1.96924        2.28620
H         -6.12939        1.62440        0.74486
H         -3.06440       -0.79707        1.62576
H         -3.75478        0.21743        2.88827
H         -4.81168       -0.78261        1.89086
C         -1.19542       -3.93711        0.15785
C         -1.11784       -3.34535        1.44539
C         -0.70364       -2.02697        1.53877
C         -0.45148       -1.28723        0.41379
C         -0.63420       -1.82234       -0.83332
C         -1.04094       -3.13341       -1.00014
O         -1.38582       -5.33869        0.03000
C         -1.43964       -4.12234        2.73148
H         -0.56168       -1.56017        2.49735
H         -0.43682       -1.19251       -1.68331
C         -1.26922       -3.66200       -2.42420
C          4.48388        0.76151       -0.69607
C          3.81117       -0.48117       -0.81379
C          2.48378       -0.54375       -0.42777
C          1.84919        0.54131        0.11725
C          2.52126        1.71710        0.32339
C          3.85390        1.84740       -0.03430
O          5.77073        0.92957       -1.27312
C          4.47395       -1.74074       -1.39306
H          1.91684       -1.44710       -0.56730
H          1.98225        2.54032        0.75994
C          4.58241        3.16708        0.26485
C         -1.97005       -3.17098        3.82833
C         -2.53610       -5.17410        2.48308
C         -0.16200       -4.80114        3.24764
C         -1.77011       -2.52842       -3.34939
C          0.05681       -4.20115       -2.98234
C         -2.34373       -4.76384       -2.44380
C         -0.17511       -6.08364       -0.01437
H         -2.30601       -3.73433        4.69859
H         -1.20098       -2.48111        4.17239
H         -2.81499       -2.58903        3.46191
H         -3.43086       -4.70609        2.07392
H         -2.20512       -5.93339        1.77886
H         -2.81055       -5.68027        3.40826
H         -0.35635       -5.35050        4.16845
H          0.23512       -5.50122        2.51654
H          0.61145       -4.06123        3.45243
H         -0.99980       -1.77922       -3.52539
H         -2.05954       -2.92276       -4.32306
H         -2.63825       -2.03077       -2.91803
H          0.44362       -5.01060       -2.36765
H         -0.07104       -4.57892       -3.99637
H          0.81128       -3.41518       -3.00798
H         -3.27454       -4.39907       -2.01075
H         -2.54916       -5.09284       -3.46213
H         -2.03027       -5.63476       -1.87389
H         -0.10811       -6.61901       -0.96125
H          0.68444       -5.42009        0.08922
H         -0.16802       -6.81650        0.79234
C          5.74517        1.37889       -2.62221
C          5.97956       -1.77311       -1.07508
C          3.85557       -3.01691       -0.77559
C          4.24928       -1.77637       -2.91249
C          6.07833        2.92629        0.53790
C          4.40788        4.12458       -0.92372
C          3.99794        3.83856        1.52856
H          6.50256       -0.94324       -1.54346
H          6.14590       -1.70823       -0.00032
H          6.43619       -2.69510       -1.43412
H          4.40857       -3.90336       -1.08540
H          3.87877       -2.97154        0.31290
H          2.82303       -3.16008       -1.09078
H          4.68711       -0.90679       -3.39651
H          4.69525       -2.66775       -3.35289
H          3.18427       -1.78150       -3.14367
H          6.58286        2.52728       -0.33845
H          6.58062        3.85333        0.81319
H          6.20991        2.21439        1.35206
H          3.35203        4.32245       -1.10696
H          4.90240        5.07691       -0.73415
H          4.82749        3.70378       -1.83416
H          2.98086        4.19126        1.36443
H          4.59339        4.70457        1.81685
H          3.98948        3.14377        2.36802
H          6.23384        0.64468       -3.26243
H          4.71647        1.52433       -2.95461
H          6.29099        2.31860       -2.70490
