105
-153.06529160
Cl         0.15349        2.83152        2.69183
Pd        -0.25170        1.73410        0.76602
P         -0.72255        0.49251       -1.19083
N          0.39876       -0.80267       -1.60059
C          0.48945       -2.18963       -1.39748
C         -0.01075       -2.86436       -0.25069
C          0.35888       -4.20732       -0.02172
C          0.05301       -4.85203        1.30928
C          1.06073       -5.95141        1.67101
C          1.12277       -6.98786        0.54452
C          1.54192       -6.34138       -0.78891
C          1.10816       -4.90421       -0.97366
C          1.53458       -4.23933       -2.11640
C          1.25701       -2.91143       -2.31025
H          1.63931       -2.39875       -3.17614
H          2.12592       -4.77511       -2.83976
H          2.63416       -6.37923       -0.88169
H          1.80031       -7.81125        0.81053
H          2.05255       -5.50287        1.80855
H          0.02587       -4.08466        2.09286
C         -0.71312       -2.11565        0.82052
C          0.05067       -1.21436        1.60285
C         -0.55491       -0.57266        2.68179
C         -1.87459       -0.79963        2.97453
C         -2.64114       -1.67786        2.21580
C         -4.08019       -1.89581        2.59962
C         -4.61305       -3.25391        2.12320
C         -4.35742       -3.42148        0.62291
C         -2.85893       -3.31404        0.28327
C         -2.06516       -2.34415        1.13112
H         -2.40734       -4.30609        0.36601
H         -4.91113       -2.64564        0.08357
H         -5.68155       -3.36380        2.35715
H         -4.68408       -1.08744        2.17050
H         -2.33497       -0.28530        3.80090
H          0.02224        0.12642        3.26032
N          1.36756       -0.93911        1.22997
P          1.84639        0.74623        1.08383
C          2.67733        1.01544       -0.47969
C          3.51588        0.04820       -0.98283
C          4.00910        0.17212       -2.26924
C          3.66734        1.26458       -3.05459
C          2.85092        2.24735       -2.51334
C          2.35155        2.11954       -1.23109
H          1.68835        2.86753       -0.82602
H          2.58822        3.10328       -3.11137
C          4.19493        1.39939       -4.44034
H          4.65637       -0.58661       -2.67510
H          3.75550       -0.81514       -0.38218
C          2.80136        1.32867        2.47545
C          2.91367        0.52381        3.58292
C          3.62898        0.96481        4.68200
C          4.23793        2.21298        4.67164
C          4.10347        3.01358        3.54462
C          3.38800        2.57061        2.44660
H          3.27612        3.19044        1.57102
H          4.55777        3.98958        3.53447
C          4.98265        2.70320        5.86437
H          3.71497        0.34252        5.55628
H          2.44135       -0.44562        3.57866
H          1.65153       -1.36070        0.35278
H          1.24996       -0.31556       -1.85743
C         -0.56231        1.66616       -2.54492
C         -0.06279        1.19591       -3.73706
C          0.10944        2.05854       -4.80486
C         -0.21566        3.40242       -4.68400
C         -0.74181        3.85474       -3.48170
C         -0.91387        2.98854       -2.41960
H         -1.32946        3.33720       -1.49044
H         -1.01700        4.89093       -3.38313
C         -0.04294        4.33059       -5.83538
H          0.50324        1.69249       -5.73759
H          0.20018        0.15424       -3.82615
C         -2.39119       -0.14392       -1.32261
C         -2.61989       -1.06761       -2.31537
C         -3.90588       -1.51946       -2.55676
C         -4.97133       -1.04715       -1.80278
C         -4.72230       -0.10630       -0.81244
C         -3.43788        0.34669       -0.57944
H         -3.25405        1.11860        0.14713
H         -5.54425        0.28310       -0.23637
C         -6.35863       -1.51259       -2.07936
H         -4.08896       -2.23944       -3.33591
H         -1.78836       -1.42505       -2.90251
Cl        -2.11635        2.95053        0.47156
H          1.15987       -6.93066       -1.63204
H          0.80952       -6.42199        2.63209
H          0.13397       -7.45026        0.43095
H         -0.95044       -5.28806        1.28205
H         -4.77076       -4.37419        0.26320
H         -2.72856       -3.03824       -0.76915
H         -4.18629       -1.80042        3.68776
H         -4.10402       -4.05695        2.67103
H          4.33474        0.42218       -4.90470
H          3.50804        1.96828       -5.06876
H          5.15668        1.91404       -4.44064
H          5.78887        3.37869        5.57495
H          4.31789        3.24257        6.54042
H          5.42762        1.87567        6.41867
H          0.14190        5.35037       -5.49487
H          0.80174        4.03194       -6.45789
H         -0.93602        4.34127       -6.46161
H         -6.99321       -1.41011       -1.19789
H         -6.80785       -0.93190       -2.88609
H         -6.36894       -2.56295       -2.37416
