111
-148.55167040
P         -1.98991        2.38603        1.32307
P         -0.01387        0.04605        0.52846
C         -1.05153        1.53080        2.61208
C         -0.23003        0.48113        2.26596
C         -1.64708        4.20207        1.33689
C         -0.86949        4.60151        0.10133
C         -1.16632        1.91180        3.93339
H         -1.79733        2.74636        4.19300
C         -0.46915        1.22271        4.91077
H         -0.55947        1.51703        5.94363
C          0.33826        0.15620        4.56425
H          0.87780       -0.38306        5.32536
C          0.45952       -0.21498        3.23703
H          1.08933       -1.04246        2.94940
Pd        -1.59074        1.26446       -0.65810
Cl        -3.28383        2.46000       -1.52110
Cl        -1.13065        0.08514       -2.51314
C         -3.05168        4.82770        1.43863
C         -3.81411        2.39664        1.64826
H         -1.43005        4.35499       -0.80275
H         -0.66914        5.67548        0.08459
H          0.08735        4.07593        0.04667
H         -3.39176        5.09405        0.42845
H         -3.00985        5.77630        1.99498
H         -4.29245        2.20296        0.67918
C         -4.07477        3.84981        2.08378
C         -4.22358        1.34372        2.65622
H         -1.06752        4.39963        2.24827
H         -4.00299        3.91082        3.17835
H         -5.10709        4.14306        1.83915
H         -5.30392        1.34540        2.81809
H         -3.93189        0.34484        2.32429
H         -3.74748        1.51900        3.62168
C         -0.99961       -4.33891       -0.20325
C         -1.77910       -3.57604        0.70663
C         -1.42423       -2.25457        0.92610
C         -0.38972       -1.67645        0.23670
C          0.28202       -2.37206       -0.73368
C         -0.02935       -3.69168       -1.01399
O         -1.13085       -5.75080       -0.24440
C         -3.00519       -4.12879        1.45218
H         -1.95385       -1.65824        1.65015
H          1.05597       -1.86791       -1.28594
C          0.66108       -4.34700       -2.22201
C          4.14502        1.16836       -0.98523
C          3.88042        1.17562        0.40808
C          2.61501        0.81277        0.83825
C          1.61643        0.52300       -0.05501
C          1.84175        0.62466       -1.40258
C          3.08253        0.97523       -1.90352
O          5.47409        1.32733       -1.46076
C          4.94644        1.54570        1.45173
H          2.39253        0.75108        1.88802
H          1.01837        0.42735       -2.06486
C          3.26396        1.11912       -3.42285
C         -2.64488       -4.35394        2.92966
C         -4.16397       -3.11101        1.36295
C         -3.51526       -5.44534        0.84071
C          0.54602       -3.40401       -3.44022
C          2.14605       -4.58058       -1.89893
C          0.00762       -5.68092       -2.62199
C         -0.24344       -6.40788        0.64467
H         -2.31287       -3.42627        3.39500
H         -3.50508       -4.72125        3.48877
H         -1.84264       -5.08238        3.03151
H         -5.07274       -3.51679        1.80672
H         -3.93218       -2.18698        1.88942
H         -4.37870       -2.86296        0.32386
H         -3.71132       -5.32365       -0.22401
H         -2.78419       -6.24219        0.95625
H         -4.43705       -5.77136        1.32189
H          0.97424       -3.86305       -4.33083
H         -0.49812       -3.17241       -3.64841
H          1.06820       -2.46374       -3.27459
H          2.66370       -5.02660       -2.74777
H          2.64570       -3.64297       -1.65704
H          2.26072       -5.24826       -1.04667
H          0.13552       -6.43106       -1.84520
H         -1.06133       -5.55040       -2.78699
H          0.44797       -6.07543       -3.53741
H          0.78597       -6.13896        0.41147
H         -0.45942       -6.11496        1.67095
H         -0.36692       -7.48641        0.54445
C          6.19351        0.10810       -1.59579
C          4.28985        2.16500        2.70708
C          5.70763        0.27936        1.87223
C          5.92635        2.59509        0.89604
C          1.93602        1.53600       -4.09613
C          4.29776        2.21089       -3.75295
C          3.70767       -0.22761       -4.01384
H          5.04732        2.54843        3.39034
H          3.63574        2.99275        2.43418
H          3.70384        1.43220        3.25987
H          6.20342       -0.18358        1.02251
H          6.46598        0.50976        2.62008
H          5.02563       -0.45616        2.29831
H          6.49079        2.20450        0.05310
H          5.38885        3.47989        0.55664
H          6.64265        2.90417        1.65688
H          2.09210        1.76763       -5.14939
H          1.19395        0.74024       -4.05153
H          1.51886        2.42147       -3.61728
H          4.38354        2.35692       -4.82940
H          4.00933        3.16057       -3.30359
H          5.28388        1.94991       -3.37671
H          3.82679       -0.15916       -5.09483
H          2.97052       -1.00178       -3.80407
H          4.65570       -0.55128       -3.59174
H          5.56189       -0.73912       -1.32553
H          6.53193       -0.00345       -2.62578
H          7.07172        0.12751       -0.95079
