111
-148.55223612
P         -2.73324        1.78682       -0.33753
P          0.17504        0.63602        0.15107
C         -1.81880        2.24068        1.16584
C         -0.53041        1.78550        1.34414
C         -3.91619        3.13753       -0.80076
C         -3.70735        3.61303       -2.22123
C         -2.40521        3.03104        2.13450
H         -3.42042        3.36831        2.00613
C         -1.69395        3.37091        3.27246
H         -2.15215        3.98860        4.02755
C         -0.40012        2.91765        3.44364
H          0.15232        3.17949        4.33103
C          0.18158        2.11642        2.47807
H          1.18291        1.73590        2.60480
Pd        -1.12784        0.89197       -1.75128
Cl        -2.61815        0.97519       -3.41930
Cl         0.51404       -0.06684       -2.94549
C         -5.29505        2.48863       -0.55501
C         -3.91127        0.38183       -0.08446
H         -4.36982        4.44617       -2.46753
H         -2.67743        3.93830       -2.38477
H         -3.91662        2.81039       -2.92912
H         -6.02318        2.89220       -1.27365
H         -5.67186        2.77394        0.43819
H         -3.54129       -0.45925       -0.68715
C         -5.23219        0.93794       -0.65384
C         -3.98579       -0.00587        1.37628
H         -3.73789        3.96527       -0.10168
H         -6.08197        0.48026       -0.12646
H         -5.33865        0.63743       -1.70672
H         -3.00684       -0.30424        1.75639
H         -4.32972        0.83546        1.98080
H         -4.67772       -0.83603        1.53720
C         -1.30758       -3.51579        1.29001
C         -0.93778       -3.24271       -0.05152
C         -0.47764       -1.97453       -0.35642
C         -0.33360       -1.01947        0.61417
C         -0.57978       -1.31330        1.92937
C         -1.02458       -2.56877        2.30798
O         -2.00052       -4.71451        1.60568
C         -1.08424       -4.27245       -1.18144
H         -0.23723       -1.70268       -1.36909
H         -0.43834       -0.53683        2.66068
C         -1.22373       -2.86929        3.80146
C          4.71897        0.88442        0.02404
C          3.95422        1.58946       -0.94081
C          2.57260        1.52267       -0.86188
C          1.95841        0.73065        0.07183
C          2.69374       -0.03708        0.93705
C          4.07811       -0.01229        0.91638
O          6.11978        1.10023        0.11716
C          4.60111        2.42438       -2.05724
H          1.95241        2.08517       -1.53821
H          2.16489       -0.66329        1.63488
C          4.85563       -0.93752        1.86565
C         -0.01994       -4.03446       -2.27712
C         -0.87891       -5.70536       -0.65827
C         -2.47766       -4.13153       -1.81335
C         -0.20029       -2.08347        4.65286
C         -2.63989       -2.44842        4.22277
C         -1.00243       -4.36285        4.10188
C         -3.41626       -4.59321        1.54497
H          0.97948       -3.99575       -1.84476
H         -0.03582       -4.83800       -3.01299
H         -0.19621       -3.10505       -2.81650
H         -0.91974       -6.42926       -1.47175
H          0.08957       -5.79959       -0.16824
H         -1.64530       -5.97798        0.06298
H         -2.61892       -3.12769       -2.21366
H         -2.61060       -4.84202       -2.62870
H         -3.26202       -4.30868       -1.08125
H          0.81540       -2.26436        4.30191
H         -0.38740       -1.01114        4.62228
H         -0.25239       -2.38721        5.69814
H         -2.81143       -2.65830        5.27820
H         -2.78852       -1.38068        4.06405
H         -3.39612       -2.97729        3.64738
H         -0.01603       -4.67973        3.76477
H         -1.07639       -4.56300        5.17051
H         -1.74111       -4.98243        3.59966
H         -3.84586       -4.82328        2.51979
H         -3.69949       -3.58121        1.25258
H         -3.81330       -5.30448        0.82085
C          6.48645        2.15354        0.99925
C          5.94689        1.81695       -2.49350
C          3.69452        2.45357       -3.30921
C          4.80560        3.86464       -1.56434
C          5.09446       -0.21325        3.19902
C          4.05489       -2.23090        2.14319
C          6.19809       -1.36602        1.24580
H          6.37303        2.36860       -3.33107
H          6.67216        1.83684       -1.68381
H          5.81746        0.77974       -2.80076
H          2.78048        3.01830       -3.13249
H          4.20580        2.92726       -4.14687
H          3.41963        1.44353       -3.61207
H          5.45765        3.89463       -0.69468
H          5.25285        4.48352       -2.34178
H          3.85402        4.31368       -1.28081
H          5.63811       -0.84943        3.89703
H          5.67106        0.69739        3.05509
H          4.14749        0.06386        3.66184
H          4.65541       -2.94431        2.70710
H          3.15934       -2.03363        2.73050
H          3.75519       -2.70885        1.21085
H          6.03943       -1.83987        0.27768
H          6.71885       -2.07459        1.88940
H          6.85587       -0.51357        1.09564
H          7.12122        1.76128        1.79359
H          7.05247        2.90746        0.45240
H          5.59792        2.61109        1.43611
