111
-148.54849231
P         -2.68056        1.92460       -0.30891
P          0.11303        0.57776        0.33861
C         -1.87841        2.21514        1.29808
C         -0.63616        1.67453        1.55106
C         -3.75953        3.36872       -0.74910
C         -3.42621        3.94140       -2.10857
C         -2.50656        2.96632        2.27193
H         -3.48818        3.36936        2.08557
C         -1.88208        3.18216        3.48841
H         -2.37321        3.76931        4.24719
C         -0.63331        2.64418        3.73330
H         -0.14908        2.80953        4.68165
C         -0.01018        1.88150        2.76209
H          0.95500        1.43422        2.94241
Pd        -0.99382        1.03732       -1.63877
Cl        -2.31765        1.40026       -3.40564
Cl         0.66161       -0.02959       -2.72331
C         -5.18267        2.77966       -0.65168
C         -3.94144        0.57076       -0.25988
H         -2.37177        4.21849       -2.17619
H         -3.62684        3.21032       -2.89234
H         -4.02530        4.82800       -2.32908
H         -5.83617        3.27713       -1.38310
H         -5.61596        3.00700        0.33340
H         -3.56822       -0.23784       -0.90359
C         -5.18841        1.24059       -0.87192
C         -4.14254        0.07195        1.15441
H         -3.59310        4.13040        0.02408
H         -6.09585        0.79029       -0.44356
H         -5.23217        1.02925       -1.95060
H         -4.48988        0.87945        1.80169
H         -4.88328       -0.73020        1.19644
H         -3.20956       -0.30773        1.57556
C         -1.31423       -3.67956        1.11067
C         -0.75201       -3.33431       -0.14449
C         -0.34378       -2.02725       -0.33869
C         -0.40782       -1.10474        0.67067
C         -0.84276       -1.46236        1.91967
C         -1.27087       -2.75265        2.18380
O         -1.95390       -4.93600        1.28177
C         -0.61350       -4.33529       -1.30145
H          0.02273       -1.69962       -1.29529
H         -0.85662       -0.71004        2.68833
C         -1.70778       -3.12035        3.61055
C          4.64924        0.87167        0.06835
C          3.84410        1.94370       -0.40136
C          2.46889        1.84207       -0.26267
C          1.89291        0.70384        0.23740
C          2.65876       -0.38230        0.57279
C          4.03854       -0.34871        0.46098
O          6.04978        1.04384        0.21459
C          4.40894        3.19649       -1.09231
H          1.82671        2.65630       -0.55417
H          2.16214       -1.27204        0.92074
C          4.81486       -1.64783        0.73551
C         -0.38879       -5.76461       -0.77630
C         -1.87807       -4.28023       -2.17192
C          0.60726       -3.98278       -2.18244
C         -3.21058       -2.84539        3.77255
C         -1.40319       -4.59781        3.91815
C         -0.93854       -2.27554        4.65151
C         -3.33925       -4.92708        0.96047
H          0.48336       -5.80066       -0.12427
H         -1.24497       -6.11785       -0.20721
H         -0.22791       -6.46298       -1.59720
H         -2.02547       -3.27763       -2.57300
H         -1.80539       -4.97208       -3.01058
H         -2.76401       -4.53980       -1.59728
H          0.78437       -4.75882       -2.92661
H          0.45959       -3.04969       -2.72390
H          1.50783       -3.88854       -1.57664
H         -3.42996       -1.79085        3.60852
H         -3.79621       -3.42041        3.05939
H         -3.54910       -3.10695        4.77476
H         -1.65068       -4.84244        4.95081
H         -1.97630       -5.26269        3.27669
H         -0.34637       -4.81214        3.76254
H         -1.22226       -1.22500        4.60758
H         -1.15048       -2.62146        5.66297
H          0.13691       -2.34828        4.49134
H         -3.65262       -3.92834        0.65346
H         -3.53251       -5.63270        0.15271
H         -3.91769       -5.23864        1.83007
C          6.41049        1.55556        1.48641
C          4.30248        4.39876       -0.14031
C          5.87346        3.01416       -1.52763
C          3.59212        3.48695       -2.37129
C          6.25694       -1.58892        0.20259
C          4.83591       -1.92217        2.24794
C          4.11555       -2.82435        0.01768
H          4.67238        5.30640       -0.61655
H          3.26790        4.57182        0.15436
H          4.88303        4.23500        0.76566
H          6.22315        3.87240       -2.10093
H          6.52935        2.90410       -0.66721
H          5.98204        2.12406       -2.14637
H          3.57934        2.61503       -3.02470
H          2.56091        3.75052       -2.14288
H          4.02350        4.31854       -2.92784
H          6.26499       -1.32682       -0.85483
H          6.84339       -0.84380        0.73511
H          6.75904       -2.54900        0.31953
H          3.82363       -2.00632        2.64233
H          5.36015       -2.85189        2.46762
H          5.33668       -1.11958        2.78609
H          4.69380       -3.74212        0.12133
H          4.00569       -2.61419       -1.04586
H          3.12555       -3.01839        0.42707
H          7.49329        1.67366        1.53237
H          5.93548        2.52184        1.64860
H          6.08957        0.87033        2.26936
