58
-89.85806215
P          1.71150       -0.30092        0.67357
C          2.05623        1.41263        1.08008
C          2.57416        1.74668        2.31039
C          2.80582        3.07551        2.61750
C          2.52134        4.05726        1.68839
C          2.01629        3.71500        0.44949
C          1.78861        2.38592        0.14369
H          1.42580        2.09959       -0.83065
H          2.79579        0.96839        3.02307
C          3.18735       -1.14437        0.10241
C          4.35840       -0.44051       -0.06169
C          5.49021       -1.08721       -0.52450
C          5.43801       -2.43453       -0.82322
C          4.25872       -3.13514       -0.66245
C          3.12827       -2.48561       -0.19898
H          2.19681       -3.01657       -0.08075
H          4.38028        0.61270        0.16755
C          0.90025       -1.26311        2.02301
C          0.02902       -0.43859        2.96276
C         -0.80176        0.63273        2.27275
P         -1.59111        0.07631        0.71189
C         -2.66311       -1.34247        0.96458
C         -2.95588       -2.14694       -0.11267
C         -3.78392       -3.24241        0.04557
C         -4.32116       -3.52120        1.28647
C         -4.03766       -2.70424        2.36334
C         -3.20845       -1.60887        2.20034
H         -2.99399       -0.95643        3.03094
H         -2.55262       -1.89356       -1.07949
C         -2.52023        1.45506        0.03258
C         -1.86916        2.64167       -0.21667
C         -2.56677        3.70773       -0.75512
C         -3.91128        3.57545       -1.04165
C         -4.55913        2.38140       -0.79268
C         -3.85874        1.31730       -0.25412
H         -4.34796        0.37620       -0.06243
H         -0.81712        2.72767        0.00294
Pd         0.02614       -0.28137       -0.92931
Cl         1.65206       -0.52442       -2.45571
Cl        -1.64831       -0.27770       -2.42472
H         -1.58622        1.02180        2.92594
H         -0.18266        1.48790        1.99881
H         -0.63146       -1.11548        3.52469
H          0.65828        0.03568        3.73051
H          0.30320       -2.02354        1.51370
H          1.68278       -1.79665        2.56805
H          3.20695        3.34333        3.58116
H          1.80592        4.47986       -0.27997
H          6.40874       -0.53906       -0.65523
H          4.21628       -4.18482       -0.90250
H         -4.01276       -3.87203       -0.79850
H         -4.46376       -2.91766        3.32990
H         -2.05982        4.63765       -0.95393
H         -5.60702        2.27645       -1.02108
H          2.70064        5.09264        1.92831
H          6.31818       -2.93931       -1.18683
H         -4.96767       -4.37421        1.41355
H         -4.45530        4.40465       -1.46376
