72
-108.39823492
Cl        -1.88996        0.13575        2.81327
Cl         0.82437       -1.34449        2.70724
P          1.23249       -0.98074       -0.31915
P         -2.22917        0.18748       -0.38067
C         -3.39991       -1.30269       -0.29839
C         -4.12296       -1.29610        1.04506
C         -4.42511       -1.26044       -1.43959
C         -3.13939        1.83934       -0.09565
C         -4.49804        1.81573       -0.78763
C         -1.43283        0.38507       -2.07592
C         -1.32943       -0.86443       -2.93267
C          1.15111        0.35741       -1.54789
C         -0.06475        1.04377       -1.99085
C          0.37153        2.19784       -2.77866
C          1.82070        2.18715       -2.84919
C          2.30289        1.02488       -2.12722
C         -2.56118       -2.57569       -0.39100
H         -3.41423       -1.30183        1.87254
H         -4.76737       -0.42540        1.15148
H         -5.27855       -0.63086       -1.19334
H         -4.82279       -2.25692       -1.63889
C         -3.32197        2.10931        1.39267
H         -4.94664        2.81057       -0.78443
H         -5.19373        1.15407       -0.27481
H         -2.11242        1.07908       -2.58401
H         -2.28096       -1.37024       -3.08220
H         -0.63486       -1.57235       -2.48934
H         -0.93318       -0.62362       -3.92110
H         -0.28675        2.87748       -3.32289
H          2.44004        2.89699       -3.40249
Pd        -0.52420       -0.45019        1.13032
H          3.34382        0.74032       -1.95969
C         -2.29797        2.95846       -0.70475
H         -4.40641        1.49910       -1.82697
H         -2.35971        2.20464        1.89323
H         -3.87004        3.03873        1.55469
H         -3.87498        1.31035        1.88309
H         -2.31574        2.93326       -1.79398
H         -2.67139        3.93782       -0.40025
H         -1.26428        2.87820       -0.38231
H         -4.75404       -2.18067        1.14577
H         -3.99732       -0.87942       -2.36423
H         -3.19674       -3.46100       -0.33329
H         -2.00799       -2.63595       -1.32487
H         -1.84862       -2.63811        0.43101
C          2.92684       -1.04520        0.31651
C          3.41064       -2.05058        1.11574
C          4.74225       -1.74564        1.39783
C          5.01828       -0.56459        0.75419
O          3.91293       -0.12387        0.08542
H          2.85536       -2.90609        1.46434
H          5.42065       -2.32369        2.00384
H          5.96852       -0.04513        0.76550
C          0.83576       -2.62040       -0.94785
C          0.55897       -3.65914       -0.09483
C          0.29470       -4.77841       -0.88538
C          0.42367       -4.37340       -2.19174
O          0.75372       -3.04890       -2.24489
H          0.54370       -3.59891        0.98208
H          0.03997       -5.76636       -0.53818
H          0.28615       -4.99975       -3.06445
Fe         1.23661        2.25700       -0.90569
C          2.88388        2.67046        0.24155
C          1.89918        1.93937        1.01334
C          0.67756        2.71468        1.03260
C          0.89734        3.91664        0.24813
C          2.26656        3.89514       -0.23409
H          3.91360        2.35221        0.06402
H          2.05973        0.99395        1.53572
H         -0.21931        2.45464        1.59650
H          0.18230        4.72972        0.10252
H          2.75230        4.67146       -0.82972
