171
-217.84223055
P         -1.53888        0.27347       -0.32084
P          1.69353       -0.58536       -0.19697
C         -0.80003        1.03642       -1.77146
C          0.97918       -1.66074       -1.46153
C         -0.04845        0.28187       -2.66295
C          0.54658        0.92525       -3.76604
C          0.34567        2.28382       -3.94719
C         -0.40706        3.01520       -3.05381
C         -0.97567        2.38488       -1.96486
C          1.20763       -3.01034       -1.33077
C          0.59387       -3.91187       -2.17751
C         -0.27912       -3.45460       -3.14043
C         -0.53075       -2.10159       -3.28931
C          0.13434       -1.17940       -2.45827
Cl         1.37479       -0.33424        3.07230
Cl        -1.69706       -1.02680        2.73771
C         -1.51075       -1.65775       -4.31844
C          1.37108        0.16408       -4.74501
H         -0.54872        4.07327       -3.20225
H         -1.56236        2.95030       -1.26059
H          1.87140       -3.36614       -0.56055
H          0.78376       -4.96775       -2.07336
H          0.78649        2.76937       -4.80114
H         -0.78043       -4.15278       -3.78950
C         -4.15325       -3.25422       -1.44666
C         -3.07553       -3.45366       -0.59340
C         -2.30009       -2.35140       -0.26049
C         -2.59185       -1.10869       -0.76624
C         -3.65238       -0.93372       -1.62030
C         -4.46005       -2.00624       -1.97731
H         -4.77166       -4.09698       -1.69162
H         -1.45728       -2.45879        0.39856
H         -3.85195        0.04537       -2.01674
C         -3.89048        3.53282        1.83236
C         -4.23700        3.17742        0.53549
C         -3.51748        2.15735       -0.07502
C         -2.47898        1.53612        0.57672
C         -2.14411        1.92042        1.85328
C         -2.84816        2.91689        2.51218
H         -4.45181        4.30841        2.31846
H         -3.74522        1.86347       -1.08351
H         -1.33010        1.43683        2.36073
C          5.00005       -2.70312        2.06917
C          3.69140       -3.14855        2.21522
C          2.69920       -2.48579        1.50701
C          3.00769       -1.42605        0.69174
C          4.30465       -0.99575        0.56178
C          5.33131       -1.62964        1.25057
H          5.78626       -3.19409        2.61118
H          1.66845       -2.78021        1.61696
H          4.50706       -0.15220       -0.07346
C          3.05589        3.56707       -1.36801
C          2.13347        3.43007       -0.33726
C          1.72093        2.14676       -0.00744
C          2.20143        1.05876       -0.69552
C          3.11356        1.21012       -1.71011
C          3.56822        2.47598       -2.06044
H          3.40147        4.54774       -1.63562
H          1.02923        1.99486        0.80307
H          3.47138        0.33054       -2.21768
Pd        -0.04627       -0.42830        1.33306
C         -1.51275       -4.85621        0.84665
C         -2.79036       -4.84820       -0.01787
C         -2.60365       -5.85207       -1.17018
C         -3.97701       -5.28080        0.86155
H         -1.31136       -5.85582        1.23129
H         -0.64479       -4.54505        0.26652
H         -1.61248       -4.18913        1.70269
H         -2.37473       -6.84651       -0.78747
H         -3.50275       -5.92955       -1.78011
H         -1.78485       -5.54457       -1.81922
H         -3.80061       -6.26276        1.30018
H         -4.13161       -4.57042        1.67350
H         -4.89865       -5.33320        0.28300
C         -6.73317       -0.97517       -2.04611
C         -5.69408       -1.76631       -2.86028
C         -6.32891       -3.09260       -3.32171
C         -5.30320       -0.96100       -4.11501
H         -7.03005       -1.53089       -1.15686
H         -6.32722       -0.01850       -1.71971
H         -7.62737       -0.77821       -2.63717
H         -5.60515       -3.70508       -3.85936
H         -6.70690       -3.66561       -2.47544
H         -7.16932       -2.90679       -3.99047
H         -4.55580       -1.49475       -4.70035
H         -6.17034       -0.79527       -4.75415
H         -4.89614        0.01541       -3.85640
C         -5.07824        5.41977       -0.21225
C         -5.38141        3.90995       -0.17951
C         -6.69593        3.65771        0.58034
C         -5.55236        3.42057       -1.63141
H         -5.86111        5.96323       -0.74104
H         -5.00803        5.83362        0.79287
H         -4.13273        5.61073       -0.71977
H         -7.53253        4.15415        0.08893
H         -6.91500        2.59099        0.62542
H         -6.63934        4.03082        1.60232
H         -6.35729        3.96087       -2.12949
H         -4.64152        3.57924       -2.20867
H         -5.80120        2.36047       -1.66205
C         -0.99245        3.71086        4.00664
C         -2.46697        3.26992        3.95711
C         -2.66146        2.02580        4.84426
C         -3.33699        4.41283        4.51346
H         -0.70038        3.98179        5.02097
H         -0.32934        2.91361        3.67354
H         -0.82819        4.57706        3.36666
H         -3.69532        1.68367        4.80578
H         -2.02669        1.20332        4.51634
H         -2.41491        2.24385        5.88307
H         -3.04837        4.65563        5.53607
H         -3.22507        5.31698        3.91524
H         -4.39039        4.13376        4.52637
C          2.35985       -3.76811        4.24171
C          3.29637       -4.30541        3.14304
C          4.52700       -4.94455        3.81357
C          2.56655       -5.38824        2.32552
H          2.06964       -4.56075        4.93092
H          2.85136       -2.98267        4.81522
H          1.45039       -3.34638        3.81516
H          4.22995       -5.77148        4.45851
H          5.21859       -5.33810        3.06883
H          5.05794       -4.22029        4.43101
H          3.20173       -5.75601        1.51991
H          2.29453       -6.23519        2.95512
H          1.65181       -4.99989        1.87933
C          6.93990        0.02555        0.17622
C          6.79139       -1.16675        1.14279
C          7.65723       -2.32756        0.61986
C          7.28845       -0.73134        2.53334
H          6.35830        0.88225        0.51636
H          7.98087        0.34104        0.10747
H          6.60942       -0.24062       -0.82747
H          7.30199       -2.66365       -0.35413
H          8.69742       -2.02049        0.51234
H          7.63026       -3.17952        1.29815
H          8.31787       -0.37650        2.48656
H          6.67027        0.07538        2.92681
H          7.25212       -1.55681        3.24325
C          2.07274        4.46322        1.93958
C          1.61219        4.62202        0.47904
C          0.07381        4.65789        0.42269
C          2.14611        5.96171       -0.06247
H          1.72185        5.29261        2.55331
H          1.69311        3.53947        2.37423
H          3.16054        4.43514        1.99873
H         -0.35998        3.73932        0.81442
H         -0.31981        5.48787        1.00896
H         -0.26887        4.78332       -0.60348
H          1.75248        6.79678        0.51697
H          3.23347        6.00459       -0.00357
H          1.84884        6.11016       -1.10053
C          4.05423        3.56782       -4.26712
C          4.63554        2.69232       -3.14278
C          5.10781        1.35800       -3.75266
C          5.85584        3.39333       -2.51637
H          3.18766        3.08777       -4.71949
H          3.73895        4.53990       -3.88984
H          4.79242        3.73703       -5.05085
H          5.54345        0.71152       -2.99130
H          4.28294        0.82628       -4.22465
H          5.86816        1.52869       -4.51465
H          5.59076        4.37181       -2.11783
H          6.26330        2.79836       -1.69914
H          6.64451        3.53735       -3.25466
H         -1.81408       -0.62156       -4.16266
H          1.89187       -0.66421       -4.26215
H         -2.41023       -2.27365       -4.27910
H         -1.09135       -1.74263       -5.32176
H          2.12362        0.80359       -5.20790
H          0.74997       -0.24565       -5.54222
