75
-122.81291457
P          1.86795       -0.52728       -0.14463
C          3.29597       -1.23212       -0.99822
C          4.28924       -1.78427       -0.22004
C          5.40225       -2.35030       -0.81555
C          5.51570       -2.35913       -2.19118
C          4.52309       -1.79836       -2.96916
C          3.41564       -1.23137       -2.36843
H          2.65506       -0.76135       -2.96584
H          4.61455       -1.79471       -4.04296
H          6.38140       -2.80029       -2.65772
H          6.17720       -2.78501       -0.20585
H          4.18671       -1.77497        0.85366
C          1.61198       -1.57869        1.28880
C          1.86528       -1.10690        2.55643
C          1.78610       -1.96566        3.63721
C          1.46008       -3.29271        3.43817
C          1.20947       -3.76198        2.16387
C          1.28981       -2.90083        1.08405
H          1.11909       -3.25578        0.07958
H          0.95275       -4.79700        2.00930
H          1.39434       -3.96232        4.28010
H          1.97751       -1.59867        4.63208
H          2.12617       -0.07019        2.69362
C          2.25259        1.15691        0.34821
C          3.40509        1.81100       -0.01813
C          3.58158        3.15245        0.29355
C          2.55216        3.82955        0.94766
C          1.38698        3.18781        1.30572
C          1.24051        1.82055        1.02342
O          0.07361        1.12271        1.37141
C         -1.13501        1.78163        1.09848
C         -1.29771        3.14887        1.37218
C         -2.49361        3.75924        1.06645
C         -3.53550        3.05030        0.46942
C         -3.35674        1.70088        0.19841
C         -2.17367        1.07394        0.51292
P         -1.76252       -0.63603        0.10205
C         -1.72089       -1.58766        1.63349
C         -1.42014       -0.97691        2.82928
C         -1.48368       -1.69526        4.00850
C         -1.84348       -3.02784        3.98217
C         -2.13647       -3.64165        2.78058
C         -2.07742       -2.91698        1.60380
H         -2.32074       -3.37960        0.66066
H         -2.41463       -4.68246        2.75877
H         -1.88898       -3.59121        4.89984
H         -1.24429       -1.21714        4.94404
H         -1.11821        0.05663        2.83204
C         -3.05348       -1.38831       -0.90688
C         -4.34438       -1.39504       -0.42909
C         -5.35020       -1.98966       -1.16923
C         -5.05341       -2.58389       -2.37942
C         -3.75411       -2.59180       -2.84596
C         -2.75088       -1.99702       -2.10329
H         -1.73213       -2.00643       -2.45514
H         -3.52078       -3.06023       -3.78800
H         -5.83605       -3.04637       -2.95844
H         -6.36229       -1.99182       -0.79919
H         -4.55728       -0.95163        0.53099
Pd        -0.05430        0.00022       -1.45581
Cl        -1.81656        0.94754       -2.50084
Cl         1.42012        1.00379       -2.81841
H         -4.13796        1.14967       -0.29304
C         -4.82231        3.72074        0.14277
H         -4.68177        4.79181       -0.00797
H         -5.54517        3.58537        0.94825
H         -5.25505        3.31233       -0.77146
H         -2.61660        4.80567        1.28303
S          0.05135        4.04565        2.09880
H          2.65911        4.87744        1.16574
C          4.81435        3.86904       -0.12802
H          4.16173        1.28241       -0.57162
H          4.71292        4.24431       -1.14709
H          5.02002        4.71799        0.52518
H          5.68195        3.20863       -0.09694
