72
-108.39547383
Cl        -1.93393        0.22284        2.80884
Cl         0.81438       -1.30697        2.72986
P          1.21683       -1.01631       -0.27868
P         -2.24084        0.19213       -0.37555
C         -3.48642       -1.23598       -0.24663
C         -4.23474       -1.13150        1.07909
C         -4.48376       -1.20826       -1.41207
C         -3.10509        1.88321       -0.16259
C         -4.46019        1.88039       -0.86304
C         -1.41278        0.30798       -2.05965
C         -1.30265       -0.99923       -2.82344
C          1.16874        0.29938       -1.52730
C         -0.04433        0.97573       -1.98740
C          0.39859        2.11228       -2.79927
C          1.84621        2.08582       -2.89592
C          2.32047        0.96266       -2.11107
C         -2.71594       -2.55166       -0.25896
H         -4.90639       -1.98174        1.20871
H         -3.54275       -1.12882        1.92051
H         -5.29862       -0.50912       -1.23424
H         -4.94258       -2.18884       -1.54911
C         -3.28731        2.21573        1.31345
H         -4.37319        1.51964       -1.88830
H         -4.87148        2.89037       -0.90378
H         -2.08113        0.96985       -2.62272
H         -0.68413       -1.70893       -2.28040
H         -0.82427       -0.84214       -3.79234
H         -2.26551       -1.46992       -3.01323
H         -0.25885        2.77494       -3.36547
H          2.46741        2.77961       -3.46637
Pd        -0.54435       -0.41020        1.16924
H          3.36071        0.68243       -1.93313
C         -2.23220        2.95417       -0.80977
H         -5.18458        1.26806       -0.32962
H         -2.32641        2.29217        1.81906
H         -3.80007        3.17094        1.43600
H         -3.87394        1.45831        1.82963
H         -1.20594        2.86678       -0.46862
H         -2.23686        2.87756       -1.89665
H         -2.58783        3.95438       -0.55612
H         -4.84292       -0.23076        1.13103
H         -4.01086       -0.92723       -2.35048
H         -1.97073       -2.58838        0.53566
H         -3.39024       -3.39675       -0.11045
H         -2.20435       -2.71253       -1.20460
C          2.89754       -1.07910        0.38933
C          3.33909       -2.06739        1.23245
C          4.67328       -1.78651        1.52846
C          4.99220       -0.63743        0.84721
O          3.91163       -0.19356        0.14049
H          2.75007       -2.89353        1.59840
H          5.32458       -2.35850        2.16894
H          5.95529       -0.14228        0.85874
C          0.90887       -2.64496       -0.97507
C          1.78193       -3.25215       -1.84270
C          1.22807       -4.48930       -2.17686
C          0.03799       -4.58216       -1.49694
O         -0.17154       -3.45285       -0.75697
H          2.71703       -2.84062       -2.18909
H          1.65280       -5.22791       -2.83691
H         -0.64603       -5.42104       -1.53191
Fe         1.21603        2.20677       -0.93088
C          2.87891        2.63238        0.21002
C          1.88592        1.92955        0.99622
C          0.67320        2.71862        0.99378
C          0.90726        3.91191        0.20100
C          2.26642        3.84425       -0.30345
H          3.90435        2.29869        0.03685
H          2.03506        0.99398        1.53919
H         -0.22239        2.48435        1.57051
H          0.20336        4.73181        0.04156
H          2.76074        4.60087       -0.91725
