59
-75.80552207
Cl         1.59570        0.21794        2.31718
P          1.56737       -0.15050       -0.80707
P         -1.67891       -0.11589       -0.82977
C          0.57567        0.30419       -2.29962
H          0.32342        1.36561       -2.25841
H          1.19472        0.15052       -3.18915
C         -0.66526       -0.54422       -2.31099
H         -0.40727       -1.60553       -2.26277
H         -1.27208       -0.39065       -3.20896
C          2.54704       -1.65376       -1.32850
H          2.23176       -1.83586       -2.36478
C          2.99369        0.99851       -0.49046
H          3.23538        0.88372        0.57366
C         -2.90950       -1.41292       -0.33805
H         -3.01668       -1.32017        0.75020
C         -2.86494        1.24458       -1.28095
H         -2.69751        1.45404       -2.34439
C          4.01203       -1.17514       -1.32555
H          4.51886       -1.56735       -0.43502
H          4.55711       -1.60613       -2.17867
C          4.11460        0.37199       -1.33415
H          4.03234        0.74532       -2.36459
H          5.09977        0.70651       -0.97389
C         -4.19460       -0.93480       -1.03033
H         -4.21509       -1.33249       -2.05465
H         -5.08038       -1.35546       -0.52972
C         -4.25608        0.61454       -1.06710
H         -4.66498        0.98107       -0.11565
H         -4.95823        0.96120       -1.84003
C          2.29815       -2.90735       -0.49124
H          2.98565       -3.69570       -0.82787
H          1.29698       -3.29617       -0.71469
C          2.71678        2.47215       -0.79172
H          3.66737        2.97631       -1.01503
H          2.13219        2.54770       -1.71659
C         -2.48580       -2.83235       -0.69184
H         -3.35058       -3.50345       -0.59525
H         -2.21083       -2.86975       -1.75349
C         -2.64428        2.50829       -0.45629
H         -3.51615        3.16784       -0.56909
H         -2.62347        2.23478        0.60678
C          2.44876       -2.70325        1.00741
H          3.44427       -2.34427        1.27131
H          2.27782       -3.62697        1.56511
H          1.73663       -1.96718        1.37913
C          2.02104        3.18969        0.35619
H          1.10724        2.67678        0.65462
H          1.75787        4.21860        0.10085
H          2.65874        3.22433        1.24166
C         -1.34528       -3.32647        0.18189
H         -0.50183       -2.63756        0.14303
H         -0.98939       -4.31400       -0.12025
H         -1.64853       -3.39121        1.22872
C         -1.38025        3.25816       -0.83723
H         -1.40884        3.58062       -1.87983
H         -1.22671        4.14665       -0.22051
H         -0.50353        2.62314       -0.72311
Cl        -1.69862        0.56517        2.31546
Pd        -0.08163        0.14004        0.82625
