72
-98.09161329
Fe         0.02405        2.77972       -0.04585
P          1.90133       -0.09585        0.01774
P         -1.86766       -0.08274       -0.10277
C          1.44512        1.56024        0.66418
C          0.44672        1.82645        1.68625
C          0.42374        3.25528        1.94617
C          1.40008        3.87931        1.07275
C          2.03588        2.83439        0.28777
C         -1.38920        1.56461       -0.76243
C         -1.98213        2.84548       -0.40696
C         -1.34483        3.87970       -1.20318
C         -0.33399        3.23255       -2.02017
C         -0.40781        1.79711       -1.80837
C          3.21628       -0.75897        1.13392
C          4.46085       -0.03149        0.60117
C          2.94974        0.07094       -1.50379
C          4.39183        0.16709       -0.94236
C         -3.10409       -0.83403       -1.26843
C         -4.42848       -0.80597       -0.47748
C         -2.95418        0.12732        1.38790
C         -4.35565        0.14918        0.74477
H         -0.16020        1.07412        2.18873
H         -0.21353        3.76677        2.67061
H          1.63400        4.94514        1.03022
H          2.83522        2.97293       -0.44327
H         -2.78555        2.99647        0.31693
H          0.20046        1.03801       -2.29818
Cl         1.51911       -3.10168        0.40568
Cl        -1.63361       -3.01923        0.12967
Pd         0.01566       -1.46799       -0.00235
H          3.30407       -1.83538        0.94974
C          2.88510       -0.49656        2.59699
H          2.65270        1.00084       -2.00321
C          2.76724       -1.12089       -2.44464
H          5.37697       -0.57003        0.88949
H          4.52760        0.94724        1.09810
H          4.85109        1.12554       -1.22634
H          5.00854       -0.59956       -1.43150
H         -1.56254        4.94899       -1.16858
H          0.31717        3.73370       -2.74016
H          2.79861        0.58686        2.75341
H          3.60868       -1.14670       -3.15147
H         -2.78311       -1.86444       -1.46178
C         -3.14349       -0.06843       -2.58701
H         -2.70513        1.09154        1.84747
C         -2.80598       -0.99831        2.41150
H         -4.68005       -1.81974       -0.13354
H         -5.25198       -0.51004       -1.14173
H         -4.60305        1.17228        0.42438
H         -5.11536       -0.11996        1.49386
H         -3.50543        0.95014       -2.39344
H         -2.90994       -1.95795        1.88978
C          3.90846       -1.08861        3.55387
H          3.99061       -2.16902        3.42139
H          4.90064       -0.66672        3.38426
H          3.64761       -0.90403        4.59845
C          1.45989       -1.11606       -3.22281
H          1.37389       -0.22348       -3.84525
H          1.37691       -1.98190       -3.88371
H          0.59458       -1.13662       -2.56090
C         -3.99445       -0.74459       -3.65267
H         -3.98814       -0.18939       -4.59345
H         -3.63109       -1.75202       -3.86425
H         -5.03473       -0.83885       -3.33765
C         -1.50779       -0.96684        3.20200
H         -0.63934       -1.06057        2.55093
H         -1.40440       -0.03239        3.75654
H         -1.45267       -1.78266        3.92639
H          1.88618       -0.89958        2.81456
H          2.85729       -2.04388       -1.85630
H         -2.11631        0.05551       -2.95710
H         -3.65640       -0.95897        3.10636
