105
-153.06548806
Cl         0.17457        2.87616        2.67261
Pd        -0.21761        1.75922        0.75563
P         -0.69891        0.49878       -1.18485
N          0.43720       -0.79198       -1.56846
C          0.50530       -2.18104       -1.36826
C          0.00648       -2.84612       -0.21552
C          0.33065       -4.20276       -0.00516
C          0.06799       -4.84025        1.33855
C         -0.11183       -6.36099        1.24359
C          1.10107       -6.98831        0.54755
C          1.30239       -6.40333       -0.86270
C          1.01306       -4.92449       -0.98875
C          1.44618       -4.26503       -2.13212
C          1.22908       -2.92221       -2.30127
H          1.61100       -2.41661       -3.17142
H          1.98314       -4.82077       -2.88225
H          2.32922       -6.58876       -1.20269
H          1.99842       -6.80179        1.15097
H         -0.27446       -6.80441        2.23610
H          0.92088       -4.61540        1.99053
C         -0.68168       -2.09157        0.85944
C          0.08216       -1.17846        1.62717
C         -0.52308       -0.52463        2.69907
C         -1.84102       -0.75248        2.99942
C         -2.60623       -1.64584        2.25720
C         -4.04191       -1.86809        2.65083
C         -4.56477       -3.24026        2.20423
C         -4.31406       -3.43668        0.70650
C         -2.81822       -3.32346        0.35811
C         -2.03099       -2.32452        1.18014
H         -2.35669       -4.31061        0.46201
H         -4.87674       -2.67700        0.15352
H         -5.63128       -3.35457        2.44500
H         -4.65427       -1.07386        2.20754
H         -2.30046       -0.22861        3.82030
H          0.05326        0.18416        3.26650
N          1.39796       -0.90503        1.25036
P          1.87936        0.77923        1.09416
C          2.71015        1.03518       -0.47193
C          2.37440        2.12423       -1.24103
C          2.87164        2.23534       -2.52562
C          3.69639        1.25127       -3.05138
C          4.04818        0.17461       -2.24867
C          3.55651        0.06708       -0.96015
H          3.80303       -0.78483       -0.34605
H          4.70180       -0.58502       -2.64243
C          4.22117        1.37033       -4.43966
H          2.60106        3.07888       -3.13762
H          1.70535        2.87333       -0.84798
C          2.83119        1.37316        2.48296
C          2.94475        0.57573        3.59566
C          3.65896        1.02514        4.69207
C          4.25503        2.27944        4.67862
C          4.13480        3.06500        3.53948
C          3.42046        2.61360        2.44411
H          3.31456        3.22426        1.56139
H          4.60173        4.03479        3.51657
C          5.04232        2.75715        5.84896
H          3.75642        0.40354        5.56563
H          2.47684       -0.39583        3.59643
H          1.68575       -1.33806        0.37976
H          1.29037       -0.31241       -1.83244
C         -0.54735        1.65112       -2.55754
C         -0.90673        2.97325       -2.45428
C         -0.74123        3.82209       -3.53137
C         -0.21335        3.35249       -4.72626
C          0.12078        2.00894       -4.82422
C         -0.04510        1.16370       -3.74157
H          0.22501        0.12245       -3.81248
H          0.51627        1.62945       -5.75082
C         -0.04843        4.26181       -5.89373
H         -1.02293        4.85807       -3.45045
H         -1.32243        3.33530       -1.53036
C         -2.36157       -0.15607       -1.30255
C         -3.41009        0.33413       -0.56173
C         -4.69048       -0.13682       -0.78111
C         -4.93362       -1.09577       -1.75543
C         -3.86648       -1.56829       -2.50675
C         -2.58453       -1.09848       -2.27882
H         -1.75187       -1.45685       -2.86371
H         -4.04518       -2.30276       -3.27327
C         -6.31665       -1.58138       -2.01854
H         -5.51385        0.25219       -0.20685
H         -3.23100        1.11802        0.15307
Cl        -2.09190        2.95542        0.43919
H          0.66113       -6.93738       -1.57416
H         -1.01772       -6.58387        0.66618
H          1.00005       -8.08195        0.50504
H         -0.79135       -4.37509        1.83330
H         -4.72047       -4.40026        0.36854
H         -2.69495       -3.07087       -0.70105
H         -4.14499       -1.75135        3.73717
H         -4.04656       -4.02753        2.76617
H          5.14467        1.95063       -4.45650
H          4.43142        0.38897       -4.86720
H          3.49937        1.86636       -5.09032
H          4.65322        2.34350        6.78036
H          6.08822        2.46050        5.75950
H          5.00629        3.84441        5.93013
H         -0.94621        4.26332       -6.51330
H          0.13986        5.28672       -5.57097
H          0.79122        3.95241       -6.51777
H         -6.31803       -2.64176       -2.27516
H         -6.95477       -1.45189       -1.14323
H         -6.76778       -1.03381       -2.84705
