111
-148.55471916
P         -2.60956        1.88811        0.98231
P          0.20771        0.53733        0.43133
C         -1.46733        1.57895        2.35927
C         -0.22259        1.04336        2.10767
C         -3.68046        3.35799        1.33208
C         -3.60802        4.37427        0.21413
C         -1.84050        1.86720        3.65685
H         -2.82138        2.26774        3.85338
C         -0.96077        1.62517        4.69787
H         -1.25233        1.85029        5.71076
C          0.28811        1.09297        4.44128
H          0.97173        0.90137        5.25191
C          0.65618        0.79613        3.14161
H          1.61971        0.36220        2.92568
Pd        -1.29733        1.69982       -0.90930
Cl        -3.01438        2.37952       -2.17398
Cl         0.12366        1.28876       -2.60276
C         -5.07785        2.72866        1.51524
C         -3.89589        0.57377        0.78079
H         -2.58063        4.70271        0.04047
H         -3.97911        3.94598       -0.71789
H         -4.21394        5.25661        0.43351
H         -5.84712        3.43995        1.18069
H         -5.27576        2.56048        2.58410
H         -3.70611        0.08759       -0.18622
C         -5.20996        1.38090        0.75049
C         -3.81695       -0.43555        1.90498
H         -3.31782        3.80183        2.26876
H         -6.02443        0.77360        1.17176
H         -5.49828        1.58264       -0.29177
H         -4.56973       -1.21982        1.79521
H         -2.83544       -0.91236        1.93753
H         -3.97899        0.04882        2.86975
C         -1.32140       -3.71045       -0.20139
C         -0.98863       -3.26906        1.10485
C         -0.50428       -1.98115        1.25946
C         -0.39707       -1.13306        0.18889
C         -0.79208       -1.52885       -1.06051
C         -1.30915       -2.79251       -1.28255
O         -1.63371       -5.07711       -0.42960
C         -1.11562       -4.17708        2.33809
H         -0.19949       -1.62014        2.22586
H         -0.68086       -0.82834       -1.86926
C         -1.84005       -3.13918       -2.68222
C          4.67776        0.59000       -0.42844
C          4.09377       -0.51199        0.24705
C          2.72769       -0.49138        0.47281
C          1.96896        0.59667        0.12789
C          2.54617        1.71012       -0.42275
C          3.90583        1.75219       -0.68562
O          6.02196        0.51425       -0.88095
C          4.90459       -1.73498        0.70374
H          2.22978       -1.33988        0.90999
H          1.90989        2.54229       -0.66973
C          4.50997        3.02972       -1.28916
C         -1.34108       -3.34253        3.61964
C         -2.32111       -5.12464        2.20168
C          0.17948       -4.98599        2.50694
C         -2.98354       -4.16672       -2.60439
C         -2.41633       -1.87864       -3.36922
C         -0.69058       -3.68539       -3.54213
C         -0.51485       -5.87385       -0.79806
H         -2.19135       -2.67157        3.50345
H         -1.54376       -3.99124        4.47153
H         -0.46484       -2.74775        3.87352
H         -2.19629       -5.80676        1.36423
H         -2.45011       -5.72680        3.10069
H         -3.23743       -4.55833        2.03806
H          0.36928       -5.61221        1.63878
H          1.03485       -4.32202        2.63022
H          0.12481       -5.63258        3.38238
H         -2.63991       -5.11416       -2.19731
H         -3.78515       -3.79986       -1.96414
H         -3.40101       -4.36405       -3.59142
H         -3.14713       -1.38693       -2.72764
H         -1.63729       -1.15812       -3.61319
H         -2.91305       -2.13959       -4.30326
H         -1.03641       -3.93078       -4.54590
H          0.10719       -2.94829       -3.63064
H         -0.26275       -4.58423       -3.10451
H          0.39706       -5.27535       -0.79321
H         -0.41071       -6.70146       -0.09651
H         -0.67145       -6.28988       -1.79304
C          6.16275       -0.03132       -2.18684
C          6.34497       -1.33959        1.07620
C          4.27161       -2.36738        1.96480
C          4.91484       -2.78547       -0.41716
C          4.43333        2.94909       -2.82150
C          3.72682        4.27783       -0.82248
C          5.96927        3.22326       -0.83855
H          6.88674       -0.95553        0.21561
H          6.34403       -0.56522        1.84258
H          6.89979       -2.19564        1.45940
H          3.30718       -2.82396        1.74719
H          4.91225       -3.15174        2.36729
H          4.12931       -1.61894        2.74396
H          3.89926       -3.09327       -0.66550
H          5.37155       -2.39238       -1.32223
H          5.47239       -3.67209       -0.11632
H          4.99321        2.09735       -3.19999
H          3.39999        2.83746       -3.14925
H          4.83866        3.85002       -3.28124
H          4.22768        5.19090       -1.14354
H          2.72130        4.30234       -1.23972
H          3.64948        4.30301        0.26417
H          6.60697        2.42119       -1.20135
H          6.03635        3.23727        0.24876
H          6.37464        4.16180       -1.21577
H          5.18593       -0.28755       -2.59904
H          6.65199        0.69481       -2.83585
H          6.78591       -0.92448       -2.14556
