105
-153.06637594
Cl        -0.04650        1.78164        3.13198
Pd        -0.57104        1.21210        1.01668
P         -1.14875        0.50164       -1.13885
N         -0.81541       -1.03341       -1.92927
C          0.16226       -1.98281       -1.62587
C          0.35192       -2.48653       -0.31264
C          1.33548       -3.47347       -0.08851
C          1.49556       -4.04679        1.30054
C          2.75888       -4.89857        1.50629
C          2.99694       -5.83127        0.31621
C          3.15322       -5.02106       -0.97827
C          2.09605       -3.96053       -1.15582
C          1.87043       -3.47046       -2.43562
C          0.92117       -2.51124       -2.66941
H          0.76137       -2.13934       -3.66642
H          2.45915       -3.85311       -3.25212
H          4.13793       -4.53955       -0.99672
H          3.87478       -6.47012        0.48885
H          3.62688       -4.23810        1.62652
H          1.49350       -3.22352        2.02324
C         -0.62430       -2.16997        0.75895
C         -0.18749       -1.57184        1.97338
C         -1.09807       -1.46580        3.02947
C         -2.39309       -1.89228        2.89116
C         -2.84463       -2.45933        1.70583
C         -4.27901       -2.92749        1.64594
C         -4.76131       -3.31462        0.23869
C         -3.68338       -4.10502       -0.50749
C         -2.39952       -3.27365       -0.64349
C         -1.95824       -2.60602        0.63646
H         -1.58266       -3.90308       -1.01816
H         -4.04761       -4.42877       -1.49281
H         -5.00110       -2.40762       -0.32988
H         -4.92282       -2.14426        2.06573
H         -3.08149       -1.78864        3.71285
H         -0.77577       -1.00534        3.94686
N          1.09344       -1.01814        2.11848
P          1.56326        0.20246        0.93609
C          2.63672       -0.36464       -0.37174
C          2.47405        0.15758       -1.63000
C          3.33804       -0.21504       -2.64312
C          4.38071       -1.09711       -2.39070
C          4.53652       -1.59959       -1.10515
C          3.66835       -1.22781       -0.09428
H          3.78610       -1.60688        0.90844
H          5.34067       -2.28557       -0.90107
C          5.28649       -1.53419       -3.48832
H          3.20289        0.17419       -3.63767
H          1.66572        0.84434       -1.81251
C          2.42316        1.59254        1.68156
C          3.19618        1.41289        2.80298
C          3.85973        2.49260        3.35710
C          3.75092        3.75594        2.79101
C          2.98121        3.91101        1.64585
C          2.31905        2.83068        1.09196
H          1.71753        2.94839        0.20369
H          2.90207        4.88352        1.19084
C          4.48108        4.91429        3.37623
H          4.46754        2.35971        4.23575
H          3.28372        0.43049        3.23793
H          1.26015       -0.57303        3.01160
H         -1.09836       -0.92757       -2.89517
C         -0.54189        1.85995       -2.14918
C         -0.65823        3.15112       -1.69205
C         -0.16157        4.19959       -2.44223
C          0.44654        3.96366       -3.66734
C          0.55140        2.65493       -4.11817
C          0.05276        1.60889       -3.36376
H          0.14777        0.59377       -3.71096
H          1.03182        2.45949       -5.06169
C          1.01102        5.08858       -4.46323
H         -0.24385        5.20993       -2.07941
H         -1.15026        3.33327       -0.75095
C         -2.94036        0.61525       -1.10764
C         -3.59484        1.10496       -2.21272
C         -4.97583        1.18728       -2.21406
C         -5.70904        0.77484       -1.10968
C         -5.02862        0.29051       -0.00140
C         -3.64910        0.20100       -0.00700
H         -3.11755       -0.17447        0.85181
H         -5.58623       -0.01018        0.86891
C         -7.19337        0.89063       -1.09527
H         -5.49271        1.57814       -3.07381
H         -3.02263        1.42497       -3.06920
Cl        -2.32993        2.61741        1.04486
H          3.13794       -5.68932       -1.84885
H          2.69479       -5.47168        2.44206
H          2.14667       -6.51775        0.21641
H          0.60494       -4.64271        1.53264
H         -3.46234       -5.02778        0.04347
H         -2.54709       -2.49785       -1.40345
H         -4.38942       -3.78566        2.31966
H         -5.69911       -3.88576        0.28908
H          6.28771       -1.74705       -3.11109
H          4.90700       -2.43898       -3.96520
H          5.37824       -0.76297       -4.25437
H          3.94983        5.84879        3.19046
H          4.59016        4.80561        4.45619
H          5.47871        5.00208        2.94385
H          0.98634        4.86702       -5.53111
H          0.44469        6.00711       -4.30305
H          2.04785        5.27904       -4.18273
H         -7.64298        0.10645       -0.48444
H         -7.50197        1.85401       -0.68720
H         -7.60550        0.80333       -2.10154
