171
-217.83686189
P         -1.70858        0.63608       -0.12068
P          1.44718       -0.27298       -0.33806
C         -1.00472        1.72949       -1.38109
C          0.68584       -0.99890       -1.80025
C         -0.18775        1.26283       -2.40857
C          0.48328        2.19564       -3.22303
C          0.25956        3.54793       -3.03216
C         -0.58797        3.99317       -2.04145
C         -1.20313        3.07941       -1.20870
C          0.81638       -2.34602       -2.03921
C          0.24480       -2.91662       -3.15908
C         -0.47992       -2.13233       -4.02989
C         -0.65242       -0.77883       -3.79364
C         -0.04198       -0.19357       -2.66653
Cl         1.84860        1.13264        2.61820
Cl        -1.34516        0.43806        3.12820
C         -1.46580        0.03689       -4.73737
C          1.44813        1.76459       -4.27244
H         -0.75470        5.04913       -1.90371
H         -1.84463        3.42671       -0.41633
H          1.35557       -2.96317       -1.34123
H          0.36215       -3.97051       -3.35122
H          0.76227        4.25452       -3.67094
H         -0.92360       -2.57205       -4.90686
C         -2.94960       -3.54211       -1.32669
C         -1.99002       -3.39297       -0.33339
C         -1.62359       -2.10156        0.02287
C         -2.17529       -1.01981       -0.62127
C         -3.11219       -1.18480       -1.61110
C         -3.52981       -2.45908       -1.97548
H         -3.26589       -4.53359       -1.59388
H         -0.90063       -1.93023        0.80060
H         -3.51519       -0.30950       -2.09174
C         -5.09090        2.65301        2.13367
C         -5.38436        1.57234        1.30987
C         -4.33476        0.97675        0.62373
C         -3.05117        1.44333        0.76137
C         -2.77957        2.50783        1.58437
C         -3.79770        3.13702        2.28863
H         -5.88284        3.12832        2.68123
H         -4.51983        0.13040       -0.01383
H         -1.75663        2.82315        1.69994
C          3.82817       -3.52767        1.79915
C          2.92551       -2.78124        2.54511
C          2.19245       -1.80526        1.88616
C          2.37288       -1.55925        0.54565
C          3.28813       -2.29768       -0.16603
C          4.01879       -3.31144        0.44094
H          4.40820       -4.29108        2.28255
H          1.49118       -1.21550        2.44602
H          3.41728       -2.09211       -1.21353
C          4.28040        3.06146       -1.52790
C          3.22237        3.34966       -0.67519
C          2.37124        2.31082       -0.32368
C          2.57833        1.04061       -0.80157
C          3.62344        0.77690       -1.65122
C          4.50056        1.78443       -2.03136
H          4.95041        3.85639       -1.79618
H          1.53456        2.49042        0.32716
H          3.75593       -0.22119       -2.02877
Pd         0.06686        0.56508        1.38163
C         -0.28886       -4.25050        1.35093
C         -1.40320       -4.63141        0.35880
C         -0.80284       -5.58277       -0.69297
C         -2.52331       -5.35134        1.13050
H         -0.67444       -3.61141        2.14451
H          0.13444       -5.14011        1.81681
H          0.52161       -3.72577        0.84678
H         -0.38356       -6.47046       -0.21962
H         -1.55397       -5.91190       -1.40964
H         -0.00367       -5.09075       -1.24527
H         -2.13831       -6.22864        1.65004
H         -2.96725       -4.68710        1.87181
H         -3.31569       -5.68039        0.45903
C         -5.13643       -1.36854       -3.62182
C         -4.62727       -2.69399       -3.02285
C         -5.81502       -3.41049       -2.35384
C         -4.07102       -3.56367       -4.16450
H         -4.33082       -0.82302       -4.11125
H         -5.91042       -1.55260       -4.36679
H         -5.56655       -0.72972       -2.85121
H         -6.62317       -3.57517       -3.06628
H         -5.51903       -4.38011       -1.95518
H         -6.20772       -2.81548       -1.52931
H         -3.22875       -3.07046       -4.64749
H         -3.72767       -4.53000       -3.79728
H         -4.83292       -3.74630       -4.92210
C         -7.22343        1.13666       -0.33622
C         -6.80412        1.01303        1.14007
C         -7.82543        1.77528        2.00578
C         -6.81864       -0.46953        1.55883
H         -7.20002        2.17781       -0.65743
H         -6.55484        0.57192       -0.98449
H         -8.23403        0.75808       -0.48844
H         -7.57210        1.70547        3.06348
H         -7.86717        2.82830        1.72801
H         -8.82560        1.36127        1.87820
H         -7.82019       -0.89017        1.47096
H         -6.15252       -1.06500        0.93547
H         -6.49498       -0.57978        2.59359
C         -4.34760        5.53121        2.80280
C         -3.52006        4.30893        3.24044
C         -2.02897        4.70316        3.23602
C         -3.91064        3.89802        4.67153
H         -4.15156        6.38644        3.44933
H         -4.09990        5.81698        1.78063
H         -5.41598        5.32252        2.84267
H         -1.70396        4.99950        2.23875
H         -1.84915        5.54425        3.90534
H         -1.40344        3.87648        3.57245
H         -3.34630        3.01989        4.98503
H         -3.70638        4.70188        5.37848
H         -4.97057        3.65540        4.73797
C          3.19024       -1.63524        4.75308
C          2.76214       -2.94465        4.06400
C          3.62973       -4.09461        4.61001
C          1.29034       -3.24400        4.40302
H          4.22474       -1.39331        4.51082
H          2.56932       -0.79952        4.43233
H          3.10601       -1.71742        5.83642
H          3.36175       -5.04256        4.14365
H          4.68834       -3.90727        4.43132
H          3.49266       -4.20497        5.68566
H          1.15388       -3.35200        5.47882
H          0.63251       -2.44405        4.06560
H          0.96787       -4.17113        3.93113
C          6.43558       -3.92920        0.20916
C          5.01930       -4.17449       -0.34087
C          5.01094       -3.83589       -1.84510
C          4.64549       -5.66017       -0.18010
H          7.17332       -4.51916       -0.33444
H          6.70752       -2.87792        0.11519
H          6.50200       -4.19870        1.26266
H          5.30914       -2.80242       -2.01820
H          5.70834       -4.47313       -2.38868
H          4.02098       -3.98721       -2.27542
H          5.32147       -6.29625       -0.75134
H          4.69681       -5.97337        0.86187
H          3.63084       -5.84142       -0.53473
C          2.87002        5.75811       -1.29095
C          3.03782        4.77021       -0.12262
C          4.27660        5.15192        0.70768
C          1.79433        4.87049        0.78471
H          2.00515        5.49292       -1.89741
H          2.72505        6.77420       -0.92446
H          3.74551        5.75935       -1.93905
H          4.41984        4.44866        1.52787
H          5.17943        5.14345        0.09812
H          4.16957        6.14977        1.13267
H          1.67195        5.88499        1.16352
H          0.88765        4.61118        0.23931
H          1.88107        4.20656        1.64463
C          6.49146        2.69874       -3.32870
C          5.69370        1.44086       -2.93497
C          5.19303        0.76272       -4.22471
C          6.62902        0.48060       -2.17741
H          7.31741        2.44077       -3.99148
H          5.85835        3.41533       -3.85179
H          6.91556        3.18663       -2.45136
H          4.65394       -0.15884       -4.00904
H          4.52343        1.42366       -4.77377
H          6.02678        0.51184       -4.88026
H          6.99132        0.94128       -1.25861
H          6.11234       -0.43927       -1.90648
H          7.49278        0.21363       -2.78599
H         -1.97274        0.85144       -4.21769
H          1.69446        0.70590       -4.18115
H         -2.22981       -0.57017       -5.22495
H         -0.83971        0.47076       -5.51774
H          2.37952        2.32650       -4.18826
H          1.04365        1.93496       -5.27104
