171
-217.84148346
P         -1.64040        0.40329       -0.36797
P          1.65356       -0.35878       -0.41379
C         -0.93755        1.40129       -1.68187
C          0.92032       -1.28846       -1.75936
C         -0.10620        0.82630       -2.63656
C          0.52322        1.66688       -3.57461
C          0.26112        3.02680       -3.55173
C         -0.59390        3.57139       -2.61742
C         -1.18436        2.75280       -1.67532
C          1.15460       -2.63979       -1.83309
C          0.56271       -3.39325       -2.82737
C         -0.27533       -2.78400       -3.73693
C         -0.52155       -1.42199       -3.68067
C          0.10172       -0.64884       -2.68300
Cl         1.60927        0.36719        2.78083
Cl        -1.55951       -0.45108        2.76919
C         -1.41336       -0.79213       -4.69194
C          1.46109        1.12402       -4.59444
H         -0.79340        4.63057       -2.61472
H         -1.84173        3.17098       -0.93032
H          1.80805       -3.10769       -1.11481
H          0.75452       -4.45193       -2.89058
H          0.73860        3.66206       -4.27867
H         -0.74646       -3.36887       -4.50883
C         -3.99490       -3.25625       -1.59614
C         -2.95951       -3.39310       -0.67888
C         -2.22782       -2.25952       -0.35138
C         -2.52189       -1.04958       -0.92779
C         -3.54795       -0.92883       -1.83282
C         -4.31603       -2.03466       -2.17824
H         -4.57619       -4.12101       -1.85119
H         -1.43851       -2.31305        0.37935
H         -3.76722        0.04071       -2.24832
C         -4.28458        2.76791        2.46536
C         -4.84112        1.71912        1.74223
C         -4.02133        1.03658        0.85369
C         -2.70291        1.38703        0.70364
C         -2.16900        2.42283        1.42930
C         -2.94900        3.13051        2.33388
H         -4.90372        3.30950        3.15397
H         -4.41098        0.21190        0.28303
H         -1.12787        2.66837        1.30373
C          4.18945       -2.88719        2.37735
C          2.85778       -3.23250        2.17923
C          2.11692       -2.47369        1.28291
C          2.68261       -1.40531        0.63209
C          3.99534       -1.07010        0.85211
C          4.77730       -1.80420        1.73396
H          4.78024       -3.47020        3.05691
H          1.07999       -2.70275        1.10530
H          4.40908       -0.21627        0.34478
C          4.04270        3.23458       -1.75686
C          2.96559        3.42662       -0.90024
C          2.24051        2.30903       -0.50609
C          2.57688        1.06478       -0.97690
C          3.63584        0.89178       -1.83386
C          4.40399        1.97906       -2.23217
H          4.62009        4.09195       -2.04700
H          1.40988        2.39682        0.17282
H          3.87225       -0.10107       -2.17941
Pd         0.02249        0.02325        1.23040
C         -3.56130       -5.85895       -0.45030
C         -2.62957       -4.72284        0.01280
C         -2.78809       -4.55101        1.53546
C         -1.18016       -5.11625       -0.31804
H         -3.47261       -6.02617       -1.52361
H         -3.30885       -6.79343        0.05075
H         -4.60196       -5.63197       -0.21942
H         -2.55452       -5.47723        2.06012
H         -2.12732       -3.77475        1.91817
H         -3.81033       -4.26833        1.78585
H         -0.90237       -6.04399        0.18176
H         -1.05844       -5.26101       -1.39092
H         -0.48297       -4.34110       -0.00465
C         -5.02313       -1.37735       -4.49890
C         -5.51455       -1.86317       -3.12481
C         -6.48379       -0.82584       -2.52784
C         -6.28175       -3.18517       -3.32229
H         -4.35249       -2.10988       -4.94657
H         -5.85971       -1.22864       -5.18148
H         -4.48908       -0.43159       -4.41585
H         -6.81642       -1.13617       -1.53742
H         -6.00858        0.14976       -2.43420
H         -7.36505       -0.70640       -3.15783
H         -5.64234       -3.94807       -3.76604
H         -6.66526       -3.56164       -2.37410
H         -7.13281       -3.04202       -3.98807
C         -7.05191        1.60864        0.57649
C         -6.31005        1.29652        1.88754
C         -7.00797        2.04341        3.04054
C         -6.38271       -0.21585        2.17779
H         -8.09804        1.30913        0.63713
H         -7.01670        2.67581        0.35818
H         -6.59940        1.08254       -0.26249
H         -8.03784        1.70468        3.15297
H         -6.49596        1.86738        3.98645
H         -7.03540        3.11700        2.85562
H         -7.41359       -0.53408        2.33187
H         -5.97689       -0.80178        1.35413
H         -5.81509       -0.46224        3.07486
C         -1.95717        5.42171        2.19074
C         -2.31295        4.26841        3.14441
C         -1.03652        3.75135        3.83822
C         -3.26865        4.80067        4.22956
H         -1.47738        6.24028        2.72693
H         -1.27772        5.08625        1.40914
H         -2.85237        5.81164        1.70669
H         -1.26494        2.89711        4.47513
H         -0.28645        3.43486        3.11515
H         -0.58861        4.52656        4.45947
H         -2.78653        5.57910        4.82083
H         -4.16536        5.23435        3.78757
H         -3.56808        4.00427        4.91070
C          3.06308       -4.93205        4.06328
C          2.19481       -4.41533        2.89952
C          1.98532       -5.55705        1.89082
C          0.83497       -3.97369        3.47773
H          4.00738       -5.33901        3.70275
H          3.27835       -4.13333        4.77291
H          2.55097       -5.72822        4.60352
H          1.38023       -5.22631        1.04847
H          2.94055       -5.90292        1.49625
H          1.48326       -6.40493        2.35645
H          0.37224       -4.77968        4.04682
H          0.95864       -3.11820        4.14141
H          0.13928       -3.68738        2.69133
C          6.30086        0.09474        2.35069
C          6.23956       -1.39650        1.96505
C          7.03517       -1.62984        0.66950
C          6.88913       -2.21493        3.09766
H          5.69658        0.28705        3.23697
H          7.32459        0.39991        2.56651
H          5.92949        0.73108        1.54847
H          8.07890       -1.34142        0.79295
H          7.00513       -2.68070        0.38217
H          6.62052       -1.04814       -0.15186
H          7.91408       -1.88764        3.27200
H          6.33964       -2.09473        4.03119
H          6.92254       -3.27537        2.84880
C          3.80490        5.34874        0.46783
C          2.63446        4.83539       -0.38967
C          1.35744        4.83762        0.47177
C          2.41330        5.77831       -1.58715
H          3.59495        6.34388        0.85950
H          3.98286        4.68338        1.31252
H          4.72483        5.40471       -0.11317
H          1.48149        4.21859        1.35996
H          1.11733        5.84710        0.80513
H          0.50634        4.46303       -0.09571
H          2.13950        6.77808       -1.25056
H          3.31240        5.86779       -2.19537
H          1.61321        5.40699       -2.22631
C          5.18146        1.18501       -4.48766
C          5.63017        1.75639       -3.13116
C          6.58427        0.76106       -2.44522
C          6.39848        3.06800       -3.38425
H          4.62624        0.25615       -4.36167
H          4.54237        1.89434       -5.01192
H          6.04053        0.97665       -5.12520
H          6.88032        1.12738       -1.46234
H          6.11156       -0.21160       -2.31587
H          7.48760        0.61418       -3.03701
H          5.77149        3.79841       -3.89528
H          6.74767        3.50443       -2.44858
H          7.27201        2.88920       -4.01115
H         -0.84523       -0.46283       -5.56253
H          2.31702        1.78767       -4.71850
H         -1.93014        0.07453       -4.27725
H         -2.16934       -1.49707       -5.03801
H          0.97199        1.02659       -5.56442
H          1.84191        0.14361       -4.30497
