111
-148.55099052
P         -2.17378        2.21249        1.35278
P          0.13424        0.21744        0.49209
C         -1.11654        1.46397        2.61656
C         -0.13484        0.57472        2.23975
C         -2.33274        4.03436        1.62618
C         -1.94587        4.79341        0.37584
C         -1.30171        1.76243        3.95126
H         -2.05905        2.47400        4.23731
C         -0.51373        1.14913        4.90987
H         -0.65841        1.38002        5.95263
C          0.45157        0.23576        4.53190
H          1.05902       -0.24921        5.27824
C          0.63963       -0.05431        3.19245
H          1.38293       -0.77222        2.88200
Pd        -1.48082        1.40214       -0.69871
Cl        -3.24159        2.44671       -1.61269
Cl        -0.84215        0.25329       -2.52221
C         -3.81192        4.20337        2.03119
C         -3.95276        1.70479        1.47526
H         -2.59968        4.52222       -0.45493
H         -2.02649        5.87348        0.52056
H         -0.92006        4.56723        0.07450
H         -4.17850        5.17929        1.68098
H         -3.89958        4.23092        3.12725
H         -4.17466        1.13265        0.56419
C         -4.69841        3.05473        1.47343
C         -4.21499        0.86077        2.70493
H         -1.66034        4.29139        2.45604
H         -5.62720        2.96311        2.05515
H         -5.01294        3.30439        0.44936
H         -3.56415       -0.01598        2.73424
H         -4.03185        1.43590        3.61366
H         -5.25083        0.51510        2.74014
C         -1.20174       -4.05657       -0.31381
C         -2.13734       -3.07499        0.10264
C         -1.67134       -1.79846        0.37137
C         -0.35869       -1.46776        0.15707
C          0.52558       -2.38098       -0.35342
C          0.12691       -3.67696       -0.63464
O         -1.58287       -5.42342       -0.37410
C         -3.63527       -3.37303        0.27093
H         -2.33205       -1.03787        0.75119
H          1.53857       -2.06535       -0.53009
C          1.13371       -4.65194       -1.26471
C          4.42154        0.98608       -0.87997
C          4.07387        1.20949        0.47652
C          2.76940        0.96161        0.86961
C          1.81453        0.57526       -0.03561
C          2.12516        0.47091       -1.36625
C          3.40802        0.70338       -1.82995
O          5.78386        1.01682       -1.28103
C          5.09443        1.68386        1.52337
H          2.48250        1.06718        1.89983
H          1.33399        0.21190       -2.04630
C          3.68490        0.63337       -3.34032
C         -4.47577       -2.11502       -0.04635
C         -4.09661       -4.47400       -0.70124
C         -3.90958       -3.79685        1.72151
C          0.42346       -5.66429       -2.18185
C          2.15312       -3.88960       -2.14099
C          1.89433       -5.38877       -0.15236
C         -1.39934       -6.12825        0.84712
H         -5.53892       -2.35328       -0.06581
H         -4.33690       -1.33956        0.70418
H         -4.20612       -1.70333       -1.01866
H         -5.17184       -4.63557       -0.62905
H         -3.86270       -4.19942       -1.72929
H         -3.60706       -5.42129       -0.48990
H         -4.96866       -4.00257        1.87466
H         -3.35144       -4.69326        1.98190
H         -3.61469       -3.00969        2.41514
H         -0.25515       -6.30073       -1.61921
H         -0.15806       -5.14780       -2.94480
H          1.14278       -6.31144       -2.68307
H          2.78738       -4.58419       -2.69131
H          1.64018       -3.25802       -2.86585
H          2.81132       -3.26236       -1.54150
H          2.62487       -6.08050       -0.57104
H          2.42490       -4.68187        0.48512
H          1.21531       -5.95813        0.47796
H         -0.96841       -5.47188        1.60420
H         -2.35839       -6.50792        1.19899
H         -0.73617       -6.97727        0.68196
C          6.43981       -0.24269       -1.20606
C          5.77073        0.46233        2.16385
C          6.15246        2.60453        0.88828
C          4.39784        2.50026        2.63606
C          4.07963       -0.80088       -3.72225
C          2.42499        1.02609       -4.14558
C          4.79969        1.61566       -3.74328
H          6.29233       -0.13487        1.41990
H          6.49510        0.76798        2.91841
H          5.03217       -0.17876        2.64468
H          6.83688        2.99346        1.64179
H          6.74619        2.07490        0.14743
H          5.67711        3.45039        0.39275
H          5.13264        2.94599        3.30615
H          3.80156        3.30660        2.20978
H          3.74642        1.87693        3.24689
H          4.96806       -1.12326       -3.18490
H          3.27641       -1.49626       -3.48267
H          4.28465       -0.87842       -4.78966
H          2.03774        1.98945       -3.81510
H          2.65336        1.10378       -5.20822
H          1.63331        0.28547       -4.04295
H          4.54561        2.63020       -3.43813
H          4.95254        1.61402       -4.82221
H          5.74628        1.35436       -3.27673
H          7.28818       -0.17309       -0.52549
H          5.75102       -1.01070       -0.85179
H          6.81656       -0.51761       -2.19109
