111
-148.55399163
P         -2.48207        2.14631        0.53769
P          0.09559        0.32235        0.47522
C         -1.41728        2.05796        1.99608
C         -0.30381        1.24724        1.97195
C         -2.75618        3.89382        0.00109
C         -1.86735        4.25396       -1.17026
C         -1.71389        2.79448        3.12480
H         -2.57686        3.44040        3.12722
C         -0.89907        2.70208        4.23977
H         -1.13033        3.27395        5.12357
C          0.20913        1.87719        4.22029
H          0.84295        1.80329        5.08865
C          0.50878        1.14966        3.08228
H          1.37343        0.50670        3.05316
Pd        -1.52107        0.85112       -1.10968
Cl        -3.29726        1.29487       -2.40283
Cl        -0.43730       -0.42828       -2.59729
C         -4.26399        3.92020       -0.30671
C         -4.23431        1.62604        0.84873
H         -2.02793        5.28594       -1.49081
H         -0.81051        4.13693       -0.91790
H         -2.07351        3.60818       -2.02582
H         -4.41113        3.66573       -1.36555
H         -4.66193        4.93977       -0.18926
H         -4.45295        0.86627        0.08664
C         -5.04457        2.91050        0.58100
C         -4.42191        1.06377        2.24357
H         -2.53031        4.52401        0.87120
H         -5.28486        3.38346        1.54289
H         -6.01557        2.66111        0.12736
H         -4.24878        1.83178        2.99861
H         -5.43654        0.68581        2.38914
H         -3.72283        0.25085        2.44741
C         -0.87146       -4.10312        0.94215
C         -1.88420       -3.12490        1.11816
C         -1.52851       -1.78952        1.01422
C         -0.25753       -1.42436        0.65079
C          0.68093       -2.37092        0.33072
C          0.39710       -3.72164        0.43533
O         -1.10293       -5.45158        1.32197
C         -3.34920       -3.48354        1.41170
H         -2.24686       -1.01093        1.20411
H          1.64472       -2.04019       -0.01159
C          1.46237       -4.74950        0.02449
C          4.31768        1.25962       -0.97702
C          3.19411        1.70513       -1.71819
C          1.93070        1.42531       -1.22541
C          1.75964        0.66523       -0.09795
C          2.84226        0.14625        0.56481
C          4.13430        0.39391        0.13105
O          5.62150        1.70423       -1.32352
C          3.32207        2.48832       -3.03448
H          1.05484        1.79791       -1.72712
H          2.66495       -0.46092        1.43502
C          5.31434       -0.25001        0.87671
C         -3.60426       -3.36873        2.92187
C         -4.29277       -2.51716        0.66099
C         -3.69572       -4.90291        0.92572
C          2.34757       -4.18985       -1.11218
C          2.35164       -5.07160        1.23461
C          0.81034       -6.03864       -0.50802
C         -0.80337       -5.71509        2.68663
H         -3.40435       -2.35637        3.27198
H         -4.63880       -3.61130        3.16324
H         -2.95936       -4.04524        3.47953
H         -4.05900       -2.49843       -0.40319
H         -5.33220       -2.82503        0.77152
H         -4.21763       -1.50137        1.04098
H         -4.75504       -5.11740        1.06480
H         -3.46303       -5.01287       -0.13293
H         -3.13406       -5.65769        1.46987
H          3.02029       -4.95788       -1.49308
H          1.73470       -3.83942       -1.94226
H          2.96743       -3.36208       -0.77266
H          2.82199       -4.16736        1.61988
H          1.77072       -5.51343        2.04124
H          3.13970       -5.77397        0.96426
H          1.56366       -6.74137       -0.86314
H          0.23295       -6.53865        0.26601
H          0.13761       -5.81469       -1.33521
H         -0.31238       -4.85324        3.14034
H         -1.72119       -5.93360        3.23181
H         -0.14713       -6.58307        2.75258
C          6.00598        2.92097       -0.69586
C          2.11804        2.19556       -3.95993
C          3.35259        3.99377       -2.73101
C          4.58877        2.07482       -3.80546
C          6.47617       -0.55493       -0.08643
C          5.78524        0.69332        1.99375
C          4.89575       -1.59466        1.51332
H          1.98050        1.12233       -4.08912
H          1.19320        2.61319       -3.56492
H          2.27096        2.63484       -4.94534
H          4.19624        4.25107       -2.09507
H          3.43295        4.57547       -3.64895
H          2.44315        4.30114       -2.21512
H          4.64506        2.58235       -4.76810
H          5.49020        2.32203       -3.25052
H          4.59290        1.00062       -3.98730
H          7.28678       -1.07048        0.42796
H          6.13819       -1.18740       -0.90670
H          6.88603        0.35632       -0.51492
H          6.61408        0.25649        2.55024
H          6.11733        1.64685        1.59061
H          4.97564        0.89381        2.69517
H          4.17745       -1.45451        2.31968
H          5.75867       -2.10568        1.93981
H          4.45354       -2.25408        0.76787
H          5.21418        3.27511       -0.03455
H          6.91740        2.76194       -0.11974
H          6.21116        3.67598       -1.45449
