111
-148.55165109
P         -2.48319        2.36505        0.37482
P         -0.03559        0.32891        0.52671
C         -1.79837        1.88372        1.98251
C         -0.76819        0.97086        2.04399
C         -2.66244        4.20204        0.25712
C         -1.92401        4.73384       -0.95156
C         -2.32409        2.40771        3.14623
H         -3.11438        3.13848        3.09111
C         -1.83244        1.99489        4.37251
H         -2.24475        2.40165        5.28144
C         -0.82106        1.05573        4.43225
H         -0.44479        0.72591        5.38663
C         -0.28847        0.54111        3.26387
H          0.49599       -0.19919        3.29423
Pd        -1.30275        1.16814       -1.22264
Cl        -2.77757        2.06225       -2.66570
Cl        -0.17470       -0.07257       -2.71149
C         -4.19098        4.40770        0.20228
C         -4.24869        1.84640        0.14390
H         -2.00819        5.82063       -1.02746
H         -0.86237        4.47759       -0.91359
H         -2.33227        4.30704       -1.86917
H         -4.42038        5.28282       -0.42292
H         -4.57206        4.65325        1.20440
H         -4.24787        1.08584       -0.64901
C         -4.92702        3.14684       -0.33224
C         -4.84241        1.27928        1.41641
H         -2.23793        4.61997        1.18018
H         -5.98097        3.14923       -0.01796
H         -4.94445        3.17607       -1.43166
H         -5.85505        0.90283        1.25354
H         -4.23497        0.46142        1.80986
H         -4.90068        2.04599        2.19021
C         -0.97934       -4.08156       -0.06585
C          0.37225       -3.66856        0.05627
C          0.63135       -2.32095        0.23630
C         -0.38849       -1.41569        0.36247
C         -1.69748       -1.81972        0.34246
C         -2.02791       -3.15307        0.16181
O         -1.28136       -5.41744       -0.44287
C          1.55440       -4.64516       -0.04801
H          1.64237       -1.95497        0.26318
H         -2.46201       -1.06981        0.45317
C         -3.50926       -3.56183        0.16827
C          4.47719        0.92039        0.21711
C          3.80585        1.34107        1.39359
C          2.43445        1.16265        1.46712
C          1.72542        0.66221        0.40544
C          2.35895        0.37061       -0.77420
C          3.72719        0.51834       -0.91653
O          5.89619        0.86586        0.18758
C          4.54810        1.94242        2.59746
H          1.90170        1.40583        2.36803
H          1.75665        0.01634       -1.59170
C          4.37413        0.20220       -2.27389
C          1.18909       -6.01973        0.54032
C          1.96693       -4.78817       -1.52101
C          2.77101       -4.12129        0.75016
C         -4.06146       -3.49031       -1.26385
C         -3.69080       -4.97847        0.74226
C         -4.33793       -2.60596        1.05605
C         -1.38393       -5.61871       -1.84701
H          2.04383       -6.69530        0.51775
H          0.86306       -5.91946        1.57504
H          0.38359       -6.48961       -0.01837
H          2.23803       -3.81963       -1.93999
H          2.82384       -5.45340       -1.62411
H          1.15568       -5.19065       -2.12194
H          3.56134       -4.87075        0.78636
H          3.19918       -3.22928        0.29487
H          2.48918       -3.88290        1.77542
H         -3.52783       -4.16499       -1.92816
H         -5.11735       -3.75832       -1.28923
H         -3.95888       -2.48230       -1.66537
H         -4.74571       -5.24541        0.80052
H         -3.19691       -5.72414        0.12449
H         -3.26869       -5.04284        1.74458
H         -5.35640       -2.97443        1.17684
H         -3.89532       -2.51309        2.04751
H         -4.40922       -1.61357        0.61416
H         -1.20160       -4.68433       -2.37949
H         -0.65738       -6.36693       -2.16324
H         -2.37890       -5.99005       -2.09166
C          6.43613       -0.38280        0.60251
C          4.96836        0.81351        3.55083
C          5.78343        2.74192        2.14459
C          3.63499        2.92342        3.36777
C          3.39470        0.51082       -3.42966
C          5.62777        1.06458       -2.50669
C          4.73762       -1.28954       -2.32648
H          5.48731        1.21145        4.42249
H          4.09707        0.25980        3.90002
H          5.63259        0.10786        3.05777
H          6.27206        3.22192        2.99213
H          6.51694        2.10005        1.66307
H          5.49936        3.51666        1.43322
H          3.21430        3.67054        2.69527
H          2.81457        2.40699        3.86390
H          4.19607        3.44759        4.14113
H          3.89168        0.41412       -4.39456
H          2.54895       -0.17495       -3.43680
H          3.01036        1.52737       -3.35135
H          6.04931        0.88447       -3.49529
H          5.38426        2.12367       -2.42945
H          6.40149        0.84656       -1.77492
H          3.84852       -1.90585       -2.19738
H          5.43957       -1.55334       -1.53909
H          5.19116       -1.54777       -3.28303
H          7.02308       -0.81535       -0.20753
H          7.09616       -0.22982        1.45620
H          5.63625       -1.07072        0.87964
