100
-131.97371601
C         -1.55648        3.90913       -1.35246
C         -2.29608        2.64492       -1.43758
C         -0.16690        3.61131       -1.37164
C          0.02402        2.14138       -1.51290
C          1.18722        1.58559       -2.26240
C         -1.36158        1.56167       -1.54578
C         -1.77317        0.17621       -2.00945
C         -0.86501       -0.44132       -3.05382
Cl         1.14179       -0.50643        2.69670
Cl        -1.80669       -1.54786        2.29764
C          3.25177        0.60398       -3.88217
C          2.52252        1.70319       -4.29108
C          2.96917        0.00609       -2.66251
C          1.51566        2.18987       -3.49577
C          1.95173        0.46993       -1.86236
H         -3.38025        2.55213       -1.52740
H          0.63710        4.34989       -1.40895
H          0.07528       -0.75957       -2.60589
H         -1.31757       -1.31825       -3.52217
H         -0.63343        0.27156       -3.84857
H          4.04913        0.22307       -4.49914
H          2.74417        2.17714       -5.23361
H          3.57827       -0.81894       -2.33196
H          0.93812        3.03844       -3.81992
H         -1.99839        4.90817       -1.32170
P          1.83889       -0.27209       -0.21740
H         -2.77101        0.28589       -2.44906
P         -2.02711       -0.96291       -0.57060
H         -3.03591       -2.83292       -1.74570
C         -1.93648       -3.79082       -0.14228
C         -2.10151       -2.69665       -1.20201
C         -3.17786       -3.94441        0.73734
H         -3.66787        0.64478        0.13385
C         -4.90825       -1.03420       -0.40887
C         -3.63021       -0.44306        0.19236
H         -4.81862       -2.13337       -0.37548
C         -6.12144       -0.63652        0.43820
H          3.55154       -1.91722       -0.63561
H          2.79083        0.57215        1.84482
C          3.63362        3.16487        1.39227
C          2.73253        2.27080        0.52115
C          2.99869        0.78434        0.79072
C          4.47463        0.45677        0.51795
C          5.40656        1.34471        1.36905
C          5.11843        2.84131        1.13864
H          3.39798        2.99515        2.45018
H          3.42406        4.22816        1.20967
H          2.93816        2.47665       -0.53655
H          1.67069        2.50443        0.65871
H          4.67629       -0.60605        0.70376
H          4.68187        0.61651       -0.54679
H          5.26141        1.10703        2.43023
H          6.46039        1.11418        1.15886
H          5.37544        3.10501        0.10497
H          5.76646        3.46523        1.77035
C          2.30839       -4.28908       -1.35908
C          1.72580       -2.86497       -1.25980
C          2.52278       -2.00653       -0.26916
C          2.57082       -2.67626        1.11275
C          3.16495       -4.09503        1.02304
C          2.36652       -4.95837        0.02747
H          3.32060       -4.23642       -1.77894
H          1.73012       -4.89977       -2.06636
H          0.68703       -2.91508       -0.91786
H          1.68815       -2.38347       -2.24626
H          3.12658       -2.05234        1.82541
H          1.55413       -2.74047        1.51617
H          4.20943       -4.03081        0.69377
H          3.19709       -4.56805        2.01453
H          1.34632       -5.09670        0.40685
H          2.79265       -5.96909       -0.04355
H         -1.09322       -3.49602        0.50801
C         -1.58451       -5.12978       -0.79849
H         -3.58420       -0.68710        1.25340
C         -5.11943       -0.62896       -1.86815
H         -1.30431       -2.78716       -1.94023
H         -3.03023       -4.70977        1.50085
H         -4.04007       -4.24255        0.14040
H         -3.42804       -3.01594        1.24904
H         -1.41735       -5.90915       -0.05337
H         -2.39527       -5.46284       -1.44714
H         -0.68577       -5.05441       -1.41177
H         -7.04211       -1.07768        0.05304
H         -6.00659       -0.95348        1.47604
H         -6.25014        0.44637        0.43812
H         -5.12502        0.45658       -1.97104
H         -4.34192       -1.02813       -2.51952
H         -6.07535       -0.99622       -2.24534
Fe        -1.06873        2.67608        0.20547
C         -2.58719        2.94033        1.57321
C         -1.73782        4.11661        1.50648
C         -0.37992        3.71519        1.82627
C         -0.39689        2.29081        2.09418
C         -1.75843        1.81517        1.95150
H         -3.66804        2.91801        1.41526
H         -2.06936        5.13439        1.28728
H          0.48885        4.37487        1.89072
H          0.44582        1.67890        2.41921
H         -2.08725        0.79274        2.14220
Pd        -0.18983       -0.81225        0.88932
