45
-71.81465052
C          1.34817        0.74754        2.75538
P          1.24474        0.69132        0.93518
P         -1.35317        0.30547       -0.84735
C         -1.39728       -0.05459       -2.63521
Cl         1.60523       -2.40775        1.30627
H          1.97084        1.58080        3.06831
H         -1.72985       -1.07564       -2.79876
Cl        -0.97520       -2.84696       -0.87802
C          0.40071        2.13027        0.25843
C         -0.70074        1.96165       -0.55070
C         -1.30987        3.05770       -1.12733
C         -0.81621        4.32713       -0.88239
C          0.28735        4.49489       -0.06848
C          0.90205        3.39265        0.49951
H         -2.16629        2.91423       -1.76659
H         -1.29231        5.18453       -1.32893
H          0.67458        5.48286        0.11900
H          1.77611        3.50614        1.12078
Pd         0.13937       -1.18357        0.13324
H         -0.40529        0.06621       -3.06113
H          1.77528       -0.17755        3.13198
H         -2.08286        0.62430       -3.13407
C         -5.48971       -0.21763        0.99462
C         -4.79580       -1.31231        0.51911
C         -3.54058       -1.14210       -0.03413
C         -2.98549        0.11433       -0.11471
C         -3.67320        1.20668        0.36500
C         -4.92907        1.04215        0.92059
H         -6.46828       -0.34703        1.42743
H         -5.22789       -2.29748        0.58272
H         -2.97472       -1.98787       -0.38749
H         -3.22415        2.18407        0.31025
H         -5.46841        1.89649        1.29552
C          5.20141        0.17292       -1.24527
C          5.16074       -0.00927        0.12331
C          3.96949        0.15436        0.80695
C          2.83114        0.50247        0.11687
C          2.86398        0.67937       -1.24847
C          4.05469        0.51636       -1.93388
H          6.12949        0.04289       -1.77762
H          6.05492       -0.28394        0.65839
H          3.92209        0.00204        1.87280
H          1.95665        0.94173       -1.76992
H          4.08505        0.65414       -3.00220
H          0.35371        0.87163        3.17468
