111
-148.55171085
P         -2.54019        2.10825        0.85916
P          0.12133        0.41170        0.50218
C         -1.45864        1.79713        2.28574
C         -0.28514        1.09527        2.11633
C         -3.42411        3.72446        1.06744
C         -3.24968        4.62127       -0.13786
C         -1.80924        2.24997        3.54213
H         -2.73670        2.78127        3.67835
C         -0.97690        2.00680        4.62122
H         -1.25091        2.36152        5.60139
C          0.20221        1.30873        4.44477
H          0.84932        1.11798        5.28504
C          0.54706        0.84688        3.18740
H          1.45620        0.28670        3.03277
Pd        -1.28002        1.49255       -0.98773
Cl        -2.86008        2.40960       -2.28076
Cl         0.09299        0.81974       -2.63666
C         -4.88363        3.29055        1.31777
C         -3.98143        0.94977        0.78390
H         -3.69760        4.16647       -1.02215
H         -3.73041        5.59119        0.00992
H         -2.19328        4.79523       -0.35496
H         -5.56685        4.05524        0.92024
H         -5.08269        3.25011        2.39877
H         -3.86822        0.35921       -0.13581
C         -5.18994        1.90302        0.68705
C         -4.00378        0.04295        1.99480
H         -2.99506        4.20558        1.95651
H         -6.06258        1.44073        1.17110
H         -5.47266        2.03898       -0.36729
H         -3.08403       -0.54176        2.06575
H         -4.09282        0.62754        2.91239
H         -4.84583       -0.65253        1.96092
C         -1.17216       -3.94434        0.15784
C         -1.12293       -3.33474        1.44048
C         -0.71855       -2.01226        1.52329
C         -0.45434       -1.28266        0.39389
C         -0.63093       -1.83062       -0.84876
C         -1.02742       -3.14582       -1.00707
O         -1.27646       -5.35431        0.04144
C         -1.49413       -4.05851        2.74587
H         -0.59100       -1.53971        2.48172
H         -0.43395       -1.21257       -1.70781
C         -1.28890       -3.64478       -2.43745
C          4.51388        0.69089       -0.66561
C          3.81624       -0.53547       -0.80607
C          2.48213       -0.57261       -0.44095
C          1.86199        0.52074        0.10406
C          2.55610        1.67978        0.33155
C          3.89692        1.78412       -0.00362
O          5.81370        0.83490       -1.21963
C          4.46099       -1.80425       -1.38566
H          1.89900       -1.46296       -0.59592
H          2.02867        2.51014        0.76856
C          4.64952        3.08403        0.32170
C         -2.42254       -3.15689        3.58905
C         -2.25549       -5.37115        2.49118
C         -0.21558       -4.35359        3.54726
C         -2.16267       -2.61305       -3.18592
C          0.05100       -3.79916       -3.17661
C         -2.04890       -4.98190       -2.46128
C         -0.01257       -5.99724        0.03022
H         -2.74593       -3.67135        4.49360
H         -1.92593       -2.23883        3.89865
H         -3.31261       -2.88621        3.02206
H         -1.62538       -6.10123        1.98870
H         -2.59470       -5.81661        3.42609
H         -3.12743       -5.19376        1.86256
H          0.32047       -3.43353        3.77823
H         -0.45173       -4.84966        4.48833
H          0.45882       -4.99926        2.98799
H         -2.42921       -2.97636       -4.17797
H         -3.08516       -2.42140       -2.63863
H         -1.64669       -1.66343       -3.31720
H          0.58838       -2.85192       -3.21013
H          0.69182       -4.52712       -2.68270
H         -0.10635       -4.13138       -4.20235
H         -2.30912       -5.26788       -3.48012
H         -1.44917       -5.78387       -2.03746
H         -2.96886       -4.91110       -1.88202
H          0.51925       -5.79248        0.95793
H         -0.15703       -7.07293       -0.07243
H          0.58540       -5.63285       -0.80359
C          5.82114        1.29894       -2.56393
C          4.26707       -1.81892       -2.90963
C          5.95854       -1.87488       -1.03743
C          3.80022       -3.07204       -0.79524
C          6.13601        2.80814        0.61265
C          4.51238        4.05906       -0.85747
C          4.06191        3.75269        1.58547
H          4.73804       -0.95688       -3.37564
H          4.69809       -2.71766       -3.34994
H          3.20736       -1.79318       -3.16257
H          6.40130       -2.80315       -1.39766
H          6.50977       -1.05208       -1.48556
H          6.10412       -1.82570        0.04117
H          2.77181       -3.18792       -1.13434
H          4.33929       -3.96791       -1.10248
H          3.80060       -3.03840        0.29393
H          6.65388        3.72098        0.90594
H          6.24096        2.08418        1.42000
H          6.64445        2.40872       -0.26124
H          3.46368        4.28138       -1.05328
H          5.02390        4.99843       -0.64927
H          4.93620        3.64025       -1.76692
H          4.67176        4.60200        1.89270
H          4.02675        3.04810        2.41604
H          3.05506        4.12932        1.41183
H          6.38187        2.23141       -2.62600
H          6.31175        0.56430       -3.20219
H          4.80139        1.46295       -2.91473
