45
-71.81528754
C          0.34252        0.63232        2.49080
P          0.95449        0.63026        0.77175
P         -1.62358        0.26400       -1.05780
C         -2.39300       -0.08018       -2.67439
Cl         1.74692       -2.38836        0.45440
H          0.73984        1.49054        3.02513
H         -3.22074        0.60158       -2.84734
Cl        -1.05987       -2.85629       -1.34714
C          0.29206        2.03086       -0.15630
C         -0.80875        1.87278       -0.97119
C         -1.31493        2.95006       -1.66883
C         -0.70576        4.18777       -1.55883
C          0.40087        4.34458       -0.74694
C          0.90035        3.26376       -0.04176
H         -2.18655        2.81945       -2.28942
H         -1.09752        5.03017       -2.10483
H          0.87500        5.30841       -0.66088
H          1.76278        3.37093        0.59666
Pd         0.04309       -1.17329       -0.35547
H         -2.76665       -1.10000       -2.69315
H          0.65044       -0.27817        2.99690
H         -1.65917        0.04107       -3.46607
C         -4.47419       -0.22799        2.44594
C         -3.99745        1.02710        2.12049
C         -3.14019        1.18141        1.04596
C         -2.77263        0.08191        0.30525
C         -3.23570       -1.17151        0.63164
C         -4.09348       -1.32935        1.70437
H         -5.14162       -0.34884        3.28352
H         -4.29066        1.88488        2.70315
H         -2.75220        2.15251        0.78394
H         -2.89659       -2.02033        0.05938
H         -4.45712       -2.30993        1.96404
C          5.48385        0.47069        0.37785
C          4.69409        0.74989       -0.71981
C          3.31826        0.80206       -0.58256
C          2.74406        0.58034        0.64859
C          3.52679        0.29612        1.74429
C          4.90250        0.24252        1.60951
H          6.55555        0.42672        0.27229
H          5.14664        0.92355       -1.68224
H          2.68641        1.01330       -1.43125
H          3.06196        0.10892        2.69853
H          5.51886        0.01799        2.46450
H         -0.74240        0.68555        2.49550
