111
-148.55714884
P         -2.74344        1.81322       -0.29648
P          0.14297        0.63209        0.23081
C         -1.87751        2.21158        1.24634
C         -0.59596        1.74416        1.44380
C         -3.76912        3.23319       -0.89352
C         -3.09259        3.98125       -2.02140
C         -2.48936        2.97397        2.22090
H         -3.49862        3.32075        2.07179
C         -1.80967        3.27356        3.38904
H         -2.28673        3.86899        4.15031
C         -0.52279        2.80888        3.58167
H          0.00513        3.03980        4.49226
C          0.08407        2.03686        2.60765
H          1.08085        1.65063        2.75041
Pd        -1.13742        0.90609       -1.68328
Cl        -2.60719        1.05719       -3.37063
Cl         0.50259       -0.01762       -2.90643
C         -5.09657        2.55089       -1.27157
C         -4.04837        0.51036       -0.12553
H         -2.92144        3.32555       -2.87575
H         -3.70291        4.81862       -2.36751
H         -2.12158        4.37393       -1.71055
H         -5.05663        2.26658       -2.33224
H         -5.93236        3.26216       -1.18661
H         -3.85611       -0.21737       -0.92542
C         -5.35153        1.28373       -0.40540
C         -3.99298       -0.15641        1.23196
H         -3.91697        3.89505       -0.03092
H         -5.79835        1.58107        0.55324
H         -6.09219        0.62476       -0.88334
H         -3.03381       -0.65281        1.38979
H         -4.11623        0.57829        2.02976
H         -4.78165       -0.90418        1.34292
C         -1.26534       -3.57495        1.25082
C         -0.86175       -3.26824       -0.07368
C         -0.42353       -1.98397       -0.34154
C         -0.33006       -1.04455        0.65032
C         -0.61018       -1.36808        1.95160
C         -1.03754       -2.64005        2.29358
O         -1.93836       -4.79552        1.52294
C         -0.95162       -4.27877       -1.22671
H         -0.16589       -1.68528       -1.34245
H         -0.51325       -0.60142        2.70020
C         -1.28544       -2.96713        3.77394
C          4.68073        0.88685       -0.00449
C          3.89029        1.69699       -0.85968
C          2.51147        1.59345       -0.77376
C          1.92242        0.77575        0.15391
C          2.67976        0.06683        1.04952
C          4.06301        0.13187        1.02527
O          6.08477        0.80260       -0.20210
C          4.50359        2.64260       -1.90421
H          1.87378        2.13538       -1.45064
H          2.17018       -0.55655        1.76422
C          4.86377       -0.63811        2.08728
C          0.13561       -3.99314       -2.28800
C         -0.72473       -5.71618       -0.72541
C         -2.33029       -4.15974       -1.89449
C         -1.05063       -4.46112        4.06152
C         -0.30690       -2.17781        4.67364
C         -2.72303       -2.57447        4.14733
C         -3.35415       -4.70751        1.41916
H          0.15964       -4.78207       -3.03929
H         -0.04931       -3.05782       -2.81413
H          1.12175       -3.93854       -1.82776
H          0.23300       -5.79671       -0.21236
H         -1.50231       -6.02104       -0.02949
H         -0.72717       -6.42486       -1.55320
H         -2.42179       -4.85493       -2.72852
H         -3.12971       -4.37363       -1.18904
H         -2.48690       -3.15113       -2.27671
H         -0.04706       -4.75695        3.75763
H         -1.16140       -4.67803        5.12368
H         -1.75912       -5.08547        3.52319
H         -0.51067       -1.10831        4.65243
H         -0.39149       -2.49857        5.71169
H          0.72365       -2.33675        4.35710
H         -2.92866       -2.79566        5.19431
H         -2.88465       -1.50824        3.99029
H         -3.44865       -3.11177        3.54109
H         -3.65272       -3.69979        1.12733
H         -3.71100       -5.42105        0.67658
H         -3.80849       -4.95733        2.37775
C          6.48409       -0.23907       -1.08424
C          5.84765        3.21402       -1.41738
C          4.69659        1.88008       -3.22394
C          3.57144        3.84773       -2.16482
C          6.18704        0.07808        2.41271
C          4.06661       -0.73173        3.40879
C          5.14089       -2.06213        1.58194
H          6.24891        3.93361       -2.13058
H          5.72563        3.71793       -0.45918
H          6.58979        2.43015       -1.28935
H          5.11787        2.52816       -3.99196
H          5.36506        1.03228       -3.09549
H          3.74391        1.49731       -3.58942
H          3.30715        4.34258       -1.23064
H          4.05873        4.58180       -2.80614
H          2.65310        3.54623       -2.66639
H          6.72391       -0.43403        3.21084
H          6.84270        0.11426        1.54640
H          5.99998        1.10259        2.73265
H          3.74134        0.25545        3.73620
H          3.18766       -1.36637        3.30613
H          4.67965       -1.16167        4.20060
H          5.69736       -2.63750        2.32136
H          5.71985       -2.04874        0.66173
H          4.20760       -2.58672        1.37830
H          7.15331       -0.92355       -0.56326
H          5.61248       -0.78623       -1.44568
H          7.02379        0.18506       -1.93079
