59
-75.79872598
Cl         1.30044        0.63116        2.45714
P          1.46402        0.03208       -0.79560
P         -1.72150       -0.20481       -0.81248
C          0.48125        0.40573       -2.31657
H          0.19401        1.45936       -2.29568
H          1.12353        0.25942       -3.19060
C         -0.73585       -0.47368       -2.35030
H         -0.44831       -1.52667       -2.39587
H         -1.37432       -0.27106       -3.21579
C          2.44867       -1.50489       -1.09257
H          2.02720       -1.95140       -2.00355
C          2.83611        1.24455       -0.50780
H          2.70095        1.62382        0.51312
C         -3.01992       -1.49840       -0.54200
H         -3.06192       -1.66014        0.54215
C         -2.80651        1.29232       -0.99399
H         -2.68312        1.63374       -2.02883
C          3.86308       -0.95554       -1.36086
H          4.61312       -1.70868       -1.07824
H          3.99986       -0.79684       -2.44111
C          4.11465        0.38435       -0.61301
H          4.90334        0.95571       -1.12161
H          4.51226        0.18090        0.39133
C         -4.29997       -0.79516       -1.02213
H         -4.42927       -0.98876       -2.09617
H         -5.18409       -1.23308       -0.53358
C         -4.22692        0.73489       -0.77305
H         -4.52941        0.94600        0.26190
H         -4.95158        1.27030       -1.40494
C          2.35712       -2.50214        0.06332
H          2.79674       -3.45921       -0.25134
H          1.29935       -2.72085        0.25825
C          2.78247        2.40758       -1.49265
H          2.95006        2.02023       -2.50627
H          1.76591        2.82244       -1.50429
C         -2.72498       -2.81544       -1.24972
H         -3.61824       -3.45405       -1.20589
H         -2.56562       -2.61812       -2.31762
C         -2.44804        2.41529       -0.02301
H         -3.26561        3.14969       -0.01570
H         -2.42217        2.00521        0.99501
C          3.02275       -2.04067        1.35014
H          4.10313       -1.94509        1.23206
H          2.84958       -2.73767        2.17335
H          2.64562       -1.06771        1.66326
C          3.77788        3.51455       -1.17321
H          3.70304        4.34691       -1.87680
H          4.80712        3.15421       -1.20544
H          3.61020        3.91604       -0.17198
C         -1.53323       -3.54925       -0.65656
H         -1.32185       -4.48399       -1.18080
H         -1.70179       -3.79112        0.39458
H         -0.63302       -2.93689       -0.70074
C         -1.13686        3.11501       -0.34532
H         -1.14863        3.53229       -1.35395
H         -0.93012        3.93446        0.34682
H         -0.29270        2.42831       -0.28924
Cl        -1.86378       -0.25189        2.29521
Pd        -0.14310       -0.00872        0.86963
