64
-97.21571801
Cl        -1.59812       -1.29913       -2.58925
Cl         1.53084       -1.44686       -2.94302
P          1.92631       -0.63748        0.25570
C          2.12998       -2.30973        1.02655
C          3.70710       -0.24743       -0.10258
P         -1.25651       -0.10925        0.44939
C          1.29065        0.59647        1.44319
C         -0.13260        0.84884        1.53424
C         -0.33090        1.94983        2.46582
C          0.97442        2.38345        2.93082
C          1.97955        1.54314        2.30542
H         -1.29182        2.34366        2.80160
H          1.16538        3.18291        3.64982
Pd         0.16154       -0.93909       -1.24368
H          3.05993        1.60815        2.44843
C         -4.99663        2.16146       -0.86324
C         -4.04332        2.80740       -0.10225
C         -2.90714        2.12964        0.29856
C         -2.71913        0.81495       -0.06521
C         -3.67304        0.16975       -0.81915
C         -4.81353        0.84117       -1.22167
H         -5.88325        2.68762       -1.17763
H         -4.18336        3.83831        0.17905
H         -2.15930        2.62950        0.88753
H         -3.51821       -0.85911       -1.10014
H         -5.55496        0.33407       -1.81706
C         -2.62625       -3.91930        2.50895
C         -2.37489       -2.78459        3.25593
C         -1.96536       -1.62222        2.62707
C         -1.80835       -1.60731        1.26057
C         -2.06450       -2.73209        0.51134
C         -2.47383       -3.89513        1.13626
H         -2.94509       -4.82520        2.99827
H         -2.49614       -2.80378        4.32655
H         -1.76033       -0.72778        3.19382
H         -1.95114       -2.68806       -0.56009
H         -2.67467       -4.77855        0.55273
C          4.03663       -0.34524       -1.57632
H          3.89108        0.77013        0.26637
C          4.45836       -1.29185        0.74632
H          4.66394       -0.88405        1.74694
C          3.63632       -2.60126        0.88217
H          5.44228       -1.49515        0.29884
C          1.65590       -2.28659        2.46352
H          1.52961       -3.01233        0.43242
H          3.98222       -3.18896        1.74464
H          3.81311       -3.23567        0.00150
H          2.23016       -1.56257        3.04500
H          0.60508       -1.99944        2.53065
H          1.76991       -3.26289        2.94049
H          3.45712        0.36126       -2.17208
H          5.09479       -0.14965       -1.76315
H          3.81550       -1.34607       -1.95048
Fe         0.85170        2.47433        0.85570
C          2.20738        3.20530       -0.49157
C          1.39306        4.28412        0.04181
C          0.00338        3.98785       -0.26198
C         -0.04000        2.73018       -0.98585
C          1.31875        2.24600       -1.12013
H          3.29755        3.14477       -0.45544
H          1.76238        5.17224        0.55958
H         -0.85409        4.62112       -0.02373
H         -0.92900        2.25267       -1.40222
H          1.61472        1.35148       -1.67024
