111
-148.55309166
P         -2.38425        2.41935       -0.15428
P         -0.04704        0.36927        0.46536
C         -1.77348        2.23838        1.54023
C         -0.78826        1.31465        1.81106
C         -2.48532        4.19941       -0.64210
C         -1.70243        4.44358       -1.91363
C         -2.30925        2.99531        2.56248
H         -3.06449        3.73135        2.34000
C         -1.87226        2.80552        3.86208
H         -2.29155        3.39441        4.66147
C         -0.90741        1.85542        4.13635
H         -0.57497        1.69901        5.14938
C         -0.36542        1.10600        3.10762
H          0.37951        0.35162        3.30795
Pd        -1.24422        0.89122       -1.46062
Cl        -2.57388        1.47460       -3.17044
Cl        -0.13769       -0.72814       -2.55648
C         -4.00273        4.44274       -0.78155
C         -4.15887        1.91984       -0.35693
H         -0.65243        4.16522       -1.79397
H         -2.10832        3.84887       -2.73388
H         -1.74303        5.49309       -2.21512
H         -4.18307        5.19088       -1.56718
H         -4.39768        4.88584        0.14444
H         -4.15995        1.02638       -0.99642
C         -4.77335        3.12852       -1.09159
C         -4.81373        1.61381        0.97353
H         -2.06269        4.78123        0.18839
H         -5.83401        3.22588       -0.81764
H         -4.76189        2.94907       -2.17677
H         -4.25649        0.85441        1.52656
H         -4.85766        2.50800        1.59686
H         -5.83776        1.25583        0.84348
C         -1.09207       -4.04346        0.81217
C          0.25548       -3.63326        0.98194
C          0.55065       -2.28597        0.86094
C         -0.44062       -1.36251        0.66046
C         -1.75645       -1.73949        0.60184
C         -2.12034       -3.07223        0.70240
O         -1.40820       -5.42540        0.72275
C          1.39722       -4.62364        1.26083
H          1.56755       -1.93813        0.90886
H         -2.49870       -0.97291        0.45825
C         -3.60956       -3.44553        0.64062
C          4.46037        0.98683        0.04063
C          3.73514        0.26460       -0.93957
C          2.36625        0.14263       -0.78064
C          1.72410        0.63966        0.32268
C          2.43777        1.25504        1.31879
C          3.81127        1.40898        1.22873
O          5.82443        1.31481       -0.18141
C          4.40026       -0.36124       -2.17544
H          1.76749       -0.33826       -1.53305
H          1.90470        1.62542        2.17485
C          4.57342        2.03738        2.40667
C          1.97910       -5.11905       -0.07179
C          2.52808       -3.94132        2.06484
C          0.90401       -5.81411        2.10303
C         -3.90632       -4.68512        1.50349
C         -4.48666       -2.29539        1.18549
C         -4.00571       -3.70523       -0.82103
C         -1.35621       -5.95010       -0.59804
H          1.22672       -5.63123       -0.66604
H          2.35333       -4.28331       -0.66216
H          2.80421       -5.81091        0.09544
H          3.27515       -4.67084        2.37676
H          3.04617       -3.18780        1.47321
H          2.13296       -3.46335        2.96088
H          0.15569       -6.39510        1.56996
H          1.72574       -6.48493        2.35253
H          0.45579       -5.46616        3.03310
H         -4.97163       -4.91442        1.50673
H         -3.38260       -5.56233        1.13204
H         -3.59168       -4.51959        2.53333
H         -5.52669       -2.60911        1.27220
H         -4.14802       -1.98189        2.17268
H         -4.46939       -1.43129        0.52319
H         -5.06295       -3.95676       -0.90064
H         -3.82130       -2.82173       -1.43195
H         -3.43246       -4.52500       -1.24628
H         -0.62733       -6.75912       -0.64209
H         -2.33030       -6.35751       -0.86806
H         -1.07820       -5.16892       -1.30679
C          6.02155        2.55800       -0.84323
C          4.40350        0.66121       -3.32186
C          5.83737       -0.81576       -1.86303
C          3.62265       -1.61573       -2.63597
C          5.99340        1.45337        2.52226
C          4.64092        3.56001        2.21646
C          3.85573        1.73878        3.74306
H          3.38632        0.96299       -3.57069
H          4.95698        1.55684       -3.04993
H          4.85998        0.24192       -4.21805
H          6.28561       -1.31538       -2.72148
H          6.47325        0.02721       -1.60466
H          5.84587       -1.51024       -1.02359
H          2.64100       -1.36042       -3.03202
H          4.16075       -2.13560       -3.42818
H          3.48851       -2.31248       -1.80926
H          5.95570        0.36826        2.61260
H          6.59408        1.69442        1.64881
H          6.51013        1.84894        3.39633
H          5.16011        3.81993        1.29715
H          3.63938        3.98629        2.16356
H          5.16640        4.03393        3.04516
H          2.90073        2.25740        3.81338
H          4.46004        2.06727        4.58836
H          3.67589        0.66990        3.85605
H          6.54974        2.39325       -1.78218
H          5.06317        3.03825       -1.04456
H          6.63197        3.21103       -0.21969
