72
-98.09860188
Fe        -0.01865        2.77906       -0.08555
P          1.86474       -0.05138       -0.04947
P         -1.86084       -0.06906        0.00124
C          1.42724        1.59514        0.63331
C          0.43683        1.85161        1.66372
C          0.36355        3.28634        1.87555
C          1.32998        3.92129        0.99868
C          1.98557        2.87673        0.23021
C         -1.39303        1.53541       -0.76199
C         -1.98823        2.83250       -0.47615
C         -1.31350        3.82962       -1.29020
C         -0.30588        3.14899       -2.08295
C         -0.36863        1.73126       -1.77426
C          3.23085       -0.74926        0.99893
C          4.42183        0.09661        0.51634
C          2.90229        0.18509       -1.57496
C          4.31982        0.43084       -1.00216
C         -3.19477       -0.86946       -1.02980
C         -4.47527       -0.70628       -0.18302
C         -2.86558        0.26401        1.53289
C         -4.29258        0.32972        0.95539
H         -0.15404        1.09543        2.17698
H         -0.28634        3.79549        2.59092
H          1.53113        4.99264        0.93053
H          2.76480        3.02442       -0.52033
H         -2.80022        3.02209        0.22908
H          0.27425        0.95540       -2.18870
Cl         1.55501       -3.12104       -0.13478
Cl        -1.61330       -3.01113        0.40219
Pd         0.01832       -1.48532        0.06210
H          3.37143       -1.79481        0.70093
C          2.96282       -0.66207        2.50284
H          2.52577        1.07126       -2.09923
C          2.86164       -1.03210       -2.49788
H          5.37251       -0.40832        0.74853
H          4.43680        1.02846        1.10076
H          4.63608        1.46815       -1.18706
H          5.03657       -0.18729       -1.56080
H         -1.53099        4.89999       -1.30747
H          0.36769        3.61746       -2.80433
H          3.92188       -0.59273        3.03493
H          3.66621       -0.94122       -3.24113
H         -2.92919       -1.92875       -1.12820
C         -3.31690       -0.25737       -2.42373
H         -2.55015        1.23253        1.93936
C         -2.73718       -0.82708        2.59644
H         -4.76413       -1.67539        0.24900
H         -5.31346       -0.41706       -0.83255
H         -4.49563        1.33937        0.56890
H         -5.02981        0.16349        1.75519
H         -4.28142       -0.54830       -2.86269
H         -2.88374       -1.80109        2.11264
C          2.17084       -1.84602        3.03708
H          2.73407       -2.77528        2.93209
H          1.91887       -1.73134        4.09371
H          1.24117       -1.98429        2.48713
C          1.53631       -1.23601       -3.21200
H          0.72574       -1.39848       -2.50292
H          1.27540       -0.36824       -3.82054
H          1.55959       -2.10399       -3.87490
C         -2.19167       -0.67092       -3.35670
H         -1.22254       -0.39569       -2.94579
H         -2.17811       -1.75233       -3.50585
H         -2.27764       -0.20250       -4.33975
C         -1.42460       -0.80983        3.35851
H         -0.57914       -0.92389        2.68285
H         -1.29031        0.12937        3.89849
H         -1.36561       -1.61852        4.09062
H          2.44704        0.28232        2.71847
H          3.11434       -1.92318       -1.90832
H         -3.36219        0.83518       -2.32780
H         -3.57114       -0.73309        3.30578
