45
-71.81667664
C          2.23788        1.26334        2.44940
P          1.49515        0.89913        0.82391
P         -1.00754        0.18589       -0.92748
C         -0.39144       -0.30597       -2.57346
Cl         1.29586       -1.92991        2.37994
H          2.93819        2.08923        2.36385
H          0.66763       -0.07870       -2.65385
Cl        -1.21700       -2.73204        0.38627
C          0.45366        2.23442        0.20271
C         -0.63175        1.91556       -0.58317
C         -1.42836        2.91211       -1.10809
C         -1.13081        4.23756       -0.84416
C         -0.03814        4.55817       -0.06157
C          0.75904        3.55493        0.46115
H         -2.27669        2.64577       -1.71799
H         -1.75107        5.01915       -1.25105
H          0.19587        5.59050        0.14027
H          1.62048        3.79368        1.06330
Pd         0.15762       -0.98684        0.69454
H         -0.92778        0.23548       -3.34748
H          2.76751        0.38877        2.81622
H         -0.53238       -1.37301       -2.72021
C         -5.42962       -0.63767       -0.24520
C         -4.70700        0.11047        0.66291
C         -3.36465        0.35866        0.43701
C         -2.75745       -0.13805       -0.69401
C         -3.47242       -0.88850       -1.59943
C         -4.81441       -1.13837       -1.37560
H         -6.47460       -0.83456       -0.06945
H         -5.18518        0.49752        1.54764
H         -2.78406        0.93652        1.13927
H         -2.97995       -1.28321       -2.47310
H         -5.37728       -1.72751       -2.08090
C          4.53839       -0.34878       -2.30901
C          3.80755        0.80991       -2.48763
C          2.89071        1.20097       -1.52869
C          2.71835        0.43370       -0.39993
C          3.43475       -0.72720       -0.22157
C          4.35274       -1.12018       -1.17823
H          5.25239       -0.65429       -3.05633
H          3.94914        1.40764       -3.37302
H          2.30593        2.09758       -1.65642
H          3.24670       -1.33074        0.65254
H          4.91543       -2.02930       -1.04384
H          1.45965        1.52741        3.15971
