87
-129.18629264
P         -1.60679       -0.33710       -0.34958
P          1.72143        0.41350        0.04898
C         -1.25031        0.92357       -1.57884
C          1.55842       -0.69337       -1.36926
C         -0.17972        0.76218       -2.45076
C          0.08733        1.77681       -3.39114
C         -0.72550        2.89768       -3.42520
C         -1.78309        3.03724       -2.55170
C         -2.04229        2.04453       -1.62756
C          2.31592       -1.83998       -1.33564
C          2.19341       -2.79047       -2.32973
C          1.29428       -2.59171       -3.35435
C          0.51316       -1.45023       -3.40619
C          0.65166       -0.47112       -2.40360
Cl         1.08038        0.32570        3.22160
Cl        -1.40740       -1.59686        2.60887
H         -2.40272        3.91826       -2.58694
H         -2.86870        2.14316       -0.94334
H          3.00552       -1.99682       -0.52265
H          2.79039       -3.68715       -2.29786
H         -0.51737        3.67078       -4.14528
H          1.18546       -3.33436       -4.12653
C         -2.09551       -4.41215       -2.28757
C         -1.21719       -4.26843       -1.22222
C         -1.09318       -3.01748       -0.63011
C         -1.82858       -1.95124       -1.09243
C         -2.70466       -2.10288       -2.14125
C         -2.84071       -3.34122       -2.74113
H         -2.18933       -5.37390       -2.76243
C         -0.38607       -5.41046       -0.75442
H         -0.41239       -2.87883        0.19284
H         -3.26417       -1.25040       -2.49350
H         -3.52044       -3.46714       -3.56785
C         -5.20702        0.85324        2.17368
C         -5.25967       -0.29186        1.40338
C         -4.17317       -0.65311        0.62922
C         -3.04460        0.13216        0.63071
C         -2.98837        1.27086        1.40112
C         -4.07350        1.65437        2.17898
H         -6.04887        1.13145        2.78454
H         -6.14420       -0.90748        1.41029
H         -4.19572       -1.55016        0.03242
H         -2.09327        1.86962        1.40409
C         -3.99359        2.87177        3.03112
C          5.55962       -0.42960        2.34665
C          5.45443        0.71144        1.57606
C          4.28839        0.96792        0.87947
C          3.23749        0.08423        0.95954
C          3.34067       -1.05357        1.72636
C          4.50749       -1.33110        2.42825
H          6.46293       -0.62669        2.89848
H          6.27814        1.40421        1.52106
H          4.18982        1.85813        0.28010
H          2.50161       -1.72591        1.79919
C          4.59987       -2.54166        3.28875
C          1.16366        4.82822       -0.86504
C          2.07617        4.09091       -1.59444
C          2.26299        2.75003       -1.31353
C          1.53595        2.16168       -0.30586
C          0.64672        2.89986        0.44080
C          0.44211        4.24649        0.16844
H          1.00383        5.86781       -1.09500
H          2.63315        4.55643       -2.39094
H          2.95573        2.15417       -1.88647
H          0.11495        2.43147        1.25089
C         -0.56704        5.02433        0.93707
Pd        -0.05011       -0.29258        1.38108
C          1.22112        1.66812       -4.35065
C         -0.45479       -1.28451       -4.52617
H          1.77568        2.60596       -4.40544
H          1.92313        0.88824       -4.05353
H          0.86062        1.43317       -5.35285
H         -1.20770       -0.53009       -4.29569
H          0.05676       -0.98305       -5.44097
H         -0.97946       -2.21945       -4.72779
H          0.55883       -5.44889       -1.29832
H         -0.15858       -5.32042        0.30878
H         -0.90112       -6.36036       -0.90412
H         -3.48788        2.65125        3.97221
H         -3.43815        3.66525        2.52884
H         -4.98674        3.25826        3.26411
H          4.21703       -2.33370        4.28881
H          4.01867       -3.36514        2.87119
H          5.63245       -2.87993        3.38564
H         -1.55961        4.90677        0.49960
H         -0.61465        4.68757        1.97373
H         -0.32490        6.08793        0.94427
