115
-277.93698076
P         -1.67718        0.81171        0.28495
P          1.93383        0.06444       -0.02380
C         -2.61622        2.33762        0.17496
C         -3.88407        2.36887        0.71721
H         -4.36476        1.44801        1.00945
C         -4.46377        3.58766        1.01464
H         -5.39358        3.63039        1.55840
C         -3.77934        4.76762        0.75877
C         -2.56960        4.71902        0.08555
H         -2.04307        5.64393       -0.09229
C         -1.97961        3.50348       -0.19313
H         -0.99188        3.46850       -0.62353
C         -2.68012       -0.52400       -0.39131
C         -3.02514       -1.59901        0.39599
H         -2.77256       -1.60488        1.44326
C         -3.65115       -2.68960       -0.16920
H         -3.86093       -3.56840        0.41968
C         -3.95089       -2.70030       -1.51974
C         -3.63607       -1.60057       -2.29345
H         -3.84338       -1.63702       -3.35175
C         -2.99917       -0.51663       -1.72875
H         -2.70287        0.31718       -2.34331
C         -1.27609        0.50398        2.04479
C         -0.59303       -0.68483        2.20292
H         -0.32553       -1.25175        1.33139
C         -0.08314       -1.08324        3.43611
C         -0.46992       -0.35945        4.55664
H         -0.12427       -0.66627        5.52961
C         -1.15093        0.83253        4.41312
H         -1.33074        1.44340        5.28163
C         -1.45862        1.34543        3.15223
C          1.84253        0.81426        1.64296
C          1.19891        2.04006        1.63970
H          0.79127        2.42036        0.71832
C          0.91666        2.72004        2.82498
C          1.51553        2.25646        3.98985
H          1.34624        2.78190        4.91486
C          2.17985        1.04665        4.00021
H          2.52873        0.64486        4.93630
C          2.25267        0.25130        2.85690
C         -1.63130        2.84489        3.05218
H         -2.18444        3.19984        3.93008
H         -2.29803        3.08382        2.22757
C         -0.27851        3.63486        2.90669
H         -0.30327        4.28327        2.02488
H         -0.14751        4.32454        3.74810
C          1.12441       -1.98162        3.48227
H          0.94422       -2.85383        2.84576
H          1.22234       -2.39536        4.49198
C          2.44302       -1.23361        3.05632
H          3.22846       -1.39465        3.80301
H          2.84753       -1.65915        2.14061
C          1.74018       -1.73035       -0.15269
C          2.83313       -2.51957        0.13206
C          0.51466       -2.31222       -0.40503
C          2.66210       -3.87271        0.34369
C          0.34538       -3.66789       -0.21233
C          1.40335       -4.44155        0.24267
C          3.43969        0.59132       -0.85384
C          4.02556       -0.17421       -1.83515
C          4.00197        1.78924       -0.47998
C          5.18735        0.25888       -2.44209
H          3.56782       -1.10329       -2.13457
C          5.16319        2.22086       -1.08569
H          3.53788        2.37997        0.29328
C          5.76168        1.45905       -2.07116
H          5.67043       -0.32962       -3.20617
H          5.62749        3.14869       -0.79258
Pd         0.10646        0.87122       -1.24554
Cl        -1.37913        1.92911       -2.57339
Cl         1.48701        0.67664       -3.01299
H         -0.62047       -4.12996       -0.35448
H         -0.32969       -1.70550       -0.68483
H          3.47591       -4.48492        0.70065
H          3.80323       -2.06665        0.26741
C         -5.62778        6.16589        1.79196
C         -4.10305        6.03545        1.50990
C         -3.24561        5.98835        2.81587
F         -6.27080        6.02564        0.62334
F         -6.01519        5.20247        2.63902
F         -5.87556        7.37715        2.31393
F         -3.72023        7.10102        0.80226
F         -3.51582        4.85560        3.47805
F         -1.95595        5.97791        2.45056
F         -3.51076        7.06156        3.57248
C         -3.12164       -4.71461       -2.66112
C         -4.40719       -3.96025       -2.20772
C         -5.31061       -4.81737       -1.27358
F         -3.43427       -5.95812       -3.05498
F         -2.58995       -4.02111       -3.67856
F         -2.25369       -4.73562       -1.63882
F         -5.11772       -3.65743       -3.29747
F         -6.26158       -4.01227       -0.77694
F         -5.86978       -5.80670       -1.98796
F         -4.57384       -5.31858       -0.27210
C          7.04791        3.39391       -3.04326
C          7.07511        1.87923       -2.68051
C          8.21436        1.53004       -1.68017
F          5.95034        3.61405       -3.78235
F          6.99237        4.12459       -1.92108
F          8.14841        3.69824       -3.74820
F          7.29736        1.19662       -3.80706
F          8.20347        0.19950       -1.50932
F          9.39219        1.92403       -2.18669
F          7.97438        2.13759       -0.50888
C          0.83900       -5.35036        2.44480
C          1.16083       -5.74260        0.96870
C          0.02072       -6.57365        0.31669
F          0.58747       -6.45206        3.16441
F          1.90750       -4.70364        2.92972
F         -0.21066       -4.51732        2.45682
F          2.26982       -6.48625        0.96791
F         -1.15112       -5.94832        0.50195
F          0.28703       -6.67556       -0.99461
F         -0.00651       -7.79280        0.87849
