171
-217.83440020
P         -1.70361        0.66440        0.27263
P          1.51781       -0.20563       -0.29368
C         -0.98388        1.78431       -0.95330
C          0.60466       -0.90912       -1.68426
C         -0.31146        1.36792       -2.09680
C          0.30280        2.33552       -2.91346
C          0.18527        3.67487       -2.58357
C         -0.49329        4.07160       -1.45146
C         -1.06394        3.11854       -0.62995
C          0.70767       -2.24463       -1.99114
C          0.01290       -2.77172       -3.06167
C         -0.80668       -1.95678       -3.81306
C         -0.95435       -0.61515       -3.50352
C         -0.21580       -0.07457       -2.43301
Cl         2.16182        1.33931        2.50290
Cl        -0.87380        0.68652        3.45817
C         -1.87732        0.23322       -4.30696
C          1.09025        1.95321       -4.11790
H         -0.56938        5.11729       -1.20184
H         -1.57275        3.41239        0.27628
H          1.31411       -2.88802       -1.37893
H          0.10415       -3.81776       -3.30455
H          0.64170        4.41021       -3.22445
H         -1.34456       -2.36234       -4.65289
C         -2.74377       -3.61223       -0.80829
C         -1.68450       -3.40104        0.06500
C         -1.36061       -2.08846        0.38658
C         -2.05760       -1.04219       -0.17357
C         -3.10313       -1.27271       -1.03362
C         -3.47352       -2.57024       -1.36440
H         -3.02150       -4.62173       -1.04940
H         -0.55994       -1.87678        1.07180
H         -3.63816       -0.42872       -1.43263
C         -5.64901        2.50589        1.53348
C         -5.29571        2.49799        0.18906
C         -4.07575        1.93137       -0.15634
C         -3.24949        1.40661        0.80697
C         -3.61309        1.42774        2.12881
C         -4.82585        1.97797        2.52079
H         -6.58698        2.93743        1.82829
H         -3.75916        1.90940       -1.18625
H         -2.92676        1.02911        2.85242
C          3.95763       -3.50760        1.70046
C          3.18970       -2.67659        2.50399
C          2.45711       -1.67326        1.88579
C          2.49270       -1.49931        0.52238
C          3.28526       -2.31678       -0.24772
C          4.02063       -3.34822        0.32193
H          4.52587       -4.28915        2.16847
H          1.86572       -1.00805        2.48400
H          3.32144       -2.16368       -1.31219
C          4.35071        2.94609       -1.90118
C          3.48704        3.29069       -0.86943
C          2.63215        2.31026       -0.38403
C          2.65369        1.04083       -0.90468
C          3.51176        0.71918       -1.92715
C          4.37894        1.66987       -2.45129
H          5.02227        3.69560       -2.27529
H          1.94244        2.53115        0.41037
H          3.49924       -0.27972       -2.32679
Pd         0.26069        0.63953        1.52876
C         -0.45751       -5.54214       -0.44027
C         -0.95687       -4.60697        0.67793
C         -1.93384       -5.36796        1.59167
C          0.25957       -4.17345        1.51398
H          0.22547       -5.01726       -1.10646
H          0.07481       -6.39668       -0.02279
H         -1.28179       -5.92641       -1.03930
H         -1.44704       -6.22533        2.05620
H         -2.30327       -4.71816        2.38483
H         -2.79363       -5.73344        1.03109
H          0.78015       -5.04200        1.91644
H          0.96995       -3.61954        0.90328
H         -0.03950       -3.54678        2.35368
C         -5.68909       -3.73511       -1.50756
C         -4.66966       -2.87466       -2.27757
C         -4.18383       -3.63720       -3.52252
C         -5.37572       -1.58403       -2.73607
H         -6.02219       -3.22127       -0.60597
H         -6.56570       -3.94344       -2.12074
H         -5.25800       -4.68983       -1.20888
H         -5.01766       -3.88094       -4.18065
H         -3.47489       -3.03527       -4.08867
H         -3.68978       -4.56883       -3.24910
H         -4.69879       -0.94430       -3.30111
H         -6.22520       -1.81410       -3.37899
H         -5.75100       -1.02172       -1.88146
C         -6.53392        2.00248       -1.93533
C         -6.18317        3.09742       -0.91086
C         -5.41734        4.23526       -1.61173
C         -7.49445        3.66893       -0.33853
H         -7.18089        2.39469       -2.71978
H         -5.63862        1.60456       -2.41158
H         -7.05347        1.17568       -1.45147
H         -6.02688        4.69513       -2.38937
H         -5.14024        5.00980       -0.89687
H         -4.50315        3.86898       -2.07772
H         -8.11292        4.08708       -1.13268
H         -8.07637        2.89297        0.15853
H         -7.29562        4.46577        0.37791
C         -5.46334        3.48981        4.41755
C         -5.26506        2.02365        3.99147
C         -4.21225        1.38481        4.91899
C         -6.58747        1.25138        4.15165
H         -5.75633        3.55537        5.46525
H         -4.54063        4.05534        4.28891
H         -6.23800        3.97390        3.82406
H         -4.04536        0.33912        4.66163
H         -3.26044        1.91157        4.85445
H         -4.53876        1.42075        5.95814
H         -6.91416        1.24868        5.19141
H         -7.38192        1.69705        3.55424
H         -6.46908        0.21615        3.83218
C          2.77993       -4.28997        4.39227
C          3.19786       -2.85283        4.03001
C          2.22298       -1.87738        4.72091
C          4.61819       -2.57833        4.55570
H          2.78678       -4.43564        5.47235
H          1.77353       -4.50167        4.03367
H          3.45461       -5.02447        3.95456
H          2.50387       -0.84110        4.53435
H          1.20233       -2.02651        4.36908
H          2.22516       -2.02787        5.80021
H          4.93478       -1.56835        4.29589
H          4.65960       -2.67727        5.64025
H          5.33831       -3.27506        4.12797
C          5.76449       -3.47993       -1.48479
C          4.81810       -4.29658       -0.58475
C          3.83251       -5.09305       -1.45970
C          5.66470       -5.28989        0.23420
H          6.42579       -2.85626       -0.88356
H          6.38291       -4.13607       -2.09706
H          5.20789       -2.83043       -2.15866
H          3.13834       -5.66010       -0.83955
H          3.24679       -4.43027       -2.09588
H          4.36121       -5.79449       -2.10479
H          6.24694       -5.93542       -0.42330
H          6.36287       -4.76429        0.88548
H          5.03371       -5.93224        0.84814
C          4.91678        4.97084        0.31649
C          3.52077        4.70636       -0.27634
C          2.47601        4.87700        0.84468
C          3.22231        5.73489       -1.38193
H          4.96846        5.96201        0.76667
H          5.15137        4.23688        1.08723
H          5.68972        4.91106       -0.44884
H          2.66484        4.18537        1.66547
H          2.50625        5.88744        1.25175
H          1.46754        4.70176        0.47177
H          3.23430        6.74936       -0.98382
H          3.95879        5.68253       -2.18280
H          2.24027        5.55687       -1.81779
C          4.61258        0.57255       -4.70830
C          5.36560        1.26894       -3.55786
C          6.40614        0.30312       -2.96456
C          6.09960        2.49383       -4.13723
H          4.11527       -0.33584       -4.37119
H          3.85713        1.23332       -5.13172
H          5.29858        0.29397       -5.50808
H          6.95292        0.77823       -2.15029
H          5.92636       -0.58963       -2.56630
H          7.12671       -0.00985       -3.71992
H          5.39150        3.22306       -4.53074
H          6.71383        2.98073       -3.38018
H          6.75998        2.19865       -4.95258
H         -2.26411        1.06489       -3.71588
H          0.53885        2.17561       -5.03245
H         -2.73260       -0.34395       -4.66132
H         -1.36854        0.64510       -5.17933
H          1.33173        0.88951       -4.11704
H          2.03151        2.50409       -4.15146
