111
-148.55568166
P         -1.58219        2.71483        1.01225
P         -0.46611       -0.20156        0.47216
C         -1.20070        1.61510        2.40668
C         -0.79102        0.32015        2.16750
C         -0.39020        4.12770        0.96447
C          0.47071        4.05994       -0.27936
C         -1.28905        2.07761        3.70426
H         -1.56736        3.10278        3.88563
C         -0.99497        1.23184        4.75988
H         -1.06859        1.59200        5.77304
C         -0.60130       -0.07013        4.51694
H         -0.36705       -0.72674        5.33863
C         -0.48800       -0.52406        3.21525
H         -0.14593       -1.52540        3.00640
Pd        -1.63538        1.31177       -0.82807
Cl        -2.96587        2.81998       -1.81576
Cl        -1.52136       -0.15647       -2.52455
C         -1.30195        5.36899        1.03707
C         -3.17247        3.64030        1.23103
H          1.16026        4.90550       -0.33517
H          1.06114        3.14174       -0.30755
H         -0.14931        4.07638       -1.17806
H         -1.44342        5.76032        0.02031
H         -0.80544        6.17670        1.59570
H         -3.62668        3.69444        0.23337
C         -2.68994        5.03846        1.65681
C         -4.12100        2.96300        2.19737
H          0.21945        4.04110        1.87330
H         -2.62409        5.07449        2.75281
H         -3.43521        5.80042        1.38154
H         -4.34892        1.94365        1.87762
H         -3.69097        2.90324        3.19727
H         -5.06261        3.51050        2.27993
C         -0.67075       -4.71173       -0.10817
C         -1.78040       -3.91017       -0.48106
C         -1.70974       -2.54461       -0.25803
C         -0.56770       -1.96995        0.23390
C          0.54581       -2.72580        0.49351
C          0.54075       -4.09691        0.29850
O         -0.78179       -6.12776       -0.11323
C         -3.04827       -4.50039       -1.11860
H         -2.54573       -1.90415       -0.48001
H          1.42903       -2.22253        0.84870
C          1.83428       -4.89066        0.53995
C          3.68106        1.27848       -0.70269
C          3.24698        1.39818        0.64450
C          1.99609        0.90573        0.97551
C          1.16634        0.38331        0.01850
C          1.52999        0.38452       -1.30166
C          2.76290        0.86588       -1.70472
O          5.04362        1.49290       -1.03361
C          4.07658        2.05902        1.75777
H          1.65614        0.92535        1.99635
H          0.81736        0.02467       -2.02386
C          3.03634        0.95916       -3.21480
C         -2.71360       -5.73435       -1.97645
C         -4.04651       -4.87869       -0.01435
C         -3.71544       -3.46876       -2.05720
C          3.07432       -4.01370        0.24870
C          1.88654       -5.34360        2.00673
C          1.91830       -6.11043       -0.39548
C         -1.24603       -6.67691        1.11345
H         -1.97214       -5.48433       -2.73455
H         -2.31110       -6.54191       -1.36998
H         -3.60157       -6.11315       -2.48186
H         -4.96227       -5.28848       -0.43970
H         -3.62656       -5.62252        0.65851
H         -4.31187       -4.00533        0.58091
H         -4.13521       -2.63090       -1.50278
H         -2.99628       -3.07718       -2.77621
H         -4.53304       -3.92441       -2.61520
H          3.18314       -3.21264        0.97842
H          3.98677       -4.60818        0.28911
H          3.00944       -3.56735       -0.74340
H          2.80128       -5.89928        2.21153
H          1.85597       -4.48447        2.67654
H          1.04244       -5.98392        2.25152
H          1.11855       -6.81928       -0.19568
H          1.83801       -5.80110       -1.43704
H          2.86412       -6.63676       -0.26946
H         -0.49913       -7.36285        1.51270
H         -1.43604       -5.88398        1.83793
H         -2.16404       -7.23767        0.93852
C          5.81947        0.30961       -0.94531
C          3.18516        3.04136        2.54964
C          4.60338        0.97400        2.71114
C          5.25792        2.87350        1.20293
C          1.82360        1.61498       -3.91310
C          4.26438        1.82851       -3.53501
C          3.24374       -0.45408       -3.78348
H          3.76499        3.56568        3.30877
H          2.75268        3.78774        1.88430
H          2.37013        2.53088        3.05994
H          5.17981        1.41564        3.52361
H          3.78162        0.40941        3.15072
H          5.24703        0.27000        2.18676
H          4.91181        3.60198        0.47048
H          5.77399        3.40972        1.99897
H          5.98551        2.22951        0.71457
H          0.92881        0.99978       -3.83595
H          1.60314        2.58555       -3.46955
H          2.02126        1.76706       -4.97375
H          4.16591        2.81418       -3.08147
H          5.17725        1.37624       -3.15460
H          4.38408        1.95883       -4.61029
H          3.41470       -0.41984       -4.85908
H          2.36951       -1.07867       -3.60228
H          4.10113       -0.94093       -3.32231
H          6.85051        0.53430       -1.21917
H          5.79332       -0.07872        0.07175
H          5.42387       -0.44772       -1.62048
