87
-129.18169404
P         -1.52098       -0.27128       -0.43831
P          1.70941        0.28743        0.23783
C         -1.08034        0.97427       -1.65448
C          1.51484       -0.81221       -1.18926
C          0.01923        0.73998       -2.46982
C          0.37429        1.70969       -3.42857
C         -0.39644        2.85566       -3.54134
C         -1.48948        3.06446       -2.72537
C         -1.82919        2.11844       -1.77826
C          2.12703       -2.03326       -1.02750
C          2.02522       -3.00328       -2.00586
C          1.29264       -2.74660       -3.14370
C          0.65008       -1.53334       -3.32069
C          0.76636       -0.53732       -2.33179
Cl         0.94451       -0.13459        3.34607
Cl        -1.66262       -1.80620        2.50384
H         -2.07349        3.96494       -2.82242
H         -2.68239        2.26930       -1.13809
H          2.68198       -2.22896       -0.12187
H          2.50828       -3.95759       -1.87448
H         -0.12505        3.59526       -4.27538
H          1.19970       -3.50234       -3.90519
C         -2.44840       -4.19535       -2.53142
C         -1.66274       -4.20911       -1.38704
C         -1.41060       -3.00488       -0.74188
C         -1.90491       -1.82540       -1.24756
C         -2.67988       -1.81875       -2.38342
C         -2.95666       -3.01065       -3.02716
H         -2.66136       -5.12460       -3.03178
C         -1.12969       -5.48429       -0.83596
H         -0.82857       -2.99487        0.16382
H         -3.05609       -0.88188       -2.76361
H         -3.56351       -3.01331       -3.91772
C         -5.16015        1.08900        1.94500
C         -5.22798       -0.05416        1.17402
C         -4.12561       -0.46023        0.44646
C         -2.96796        0.28097        0.48841
C         -2.89848        1.41982        1.25668
C         -3.99293        1.83808        2.00333
H         -6.01725        1.40679        2.51391
H         -6.13674       -0.63264        1.14328
H         -4.16088       -1.35798       -0.14876
H         -1.98772        1.99214        1.27713
C         -3.91329        3.07266        2.83041
C          6.07226       -0.03393        1.51060
C          5.74053        0.14384        0.18195
C          4.41211        0.23489       -0.19133
C          3.42690        0.14802        0.76538
C          3.75858       -0.02679        2.08735
C          5.08563       -0.12935        2.48174
H          7.10590       -0.09898        1.80515
H          6.51530        0.21292       -0.56395
H          4.13763        0.36795       -1.22610
H          2.97628       -0.08479        2.82227
C          5.43875       -0.29512        3.91814
C          0.79478        4.71135       -0.27076
C          1.66010        4.08918       -1.14876
C          1.94858        2.74603       -0.99646
C          1.35988        2.03605        0.02276
C          0.52966        2.66264        0.92386
C          0.22851        4.01218        0.78593
H          0.55865        5.75458       -0.39414
H          2.10321        4.64660       -1.95765
H          2.61866        2.24382       -1.67513
H          0.15073        2.10917        1.76630
C         -0.69775        4.68933        1.73287
Pd        -0.14238       -0.55642        1.43057
C          1.55999        1.53340       -4.31165
C         -0.16063       -1.31977       -4.55222
H          1.25342        1.32015       -5.33642
H          2.17141        2.43685       -4.32616
H          2.19337        0.71339       -3.97117
H          0.48082       -1.10481       -5.40768
H         -0.74822       -2.20786       -4.78909
H         -0.85742       -0.48938       -4.43442
H         -1.80819       -5.89598       -0.08758
H         -0.99942       -6.23017       -1.62130
H         -0.15924       -5.32982       -0.36179
H         -3.96295        3.96391        2.20346
H         -4.73245        3.12226        3.54906
H         -2.97914        3.10406        3.39285
H          6.35451       -0.87653        4.03411
H          5.59188        0.67474        4.39337
H          4.64632       -0.81341        4.46009
H         -1.69902        4.76361        1.30653
H         -0.76933        4.14218        2.67381
H         -0.35391        5.69876        1.96288
