111
-148.55557365
P         -2.58589        2.04810        0.83593
P          0.12303        0.44685        0.47688
C         -1.50137        1.78301        2.26470
C         -0.30146        1.12704        2.09267
C         -3.43116        3.69304        0.90065
C         -2.80715        4.67607       -0.06559
C         -1.87071        2.22303        3.51968
H         -2.81913        2.71671        3.65397
C         -1.02918        2.01268        4.59853
H         -1.31674        2.35618        5.57883
C          0.17627        1.36088        4.42164
H          0.82997        1.19502        5.26209
C          0.53914        0.91176        3.16462
H          1.46829        0.38526        3.01144
Pd        -1.31531        1.50079       -1.00642
Cl        -2.92527        2.28879       -2.34806
Cl         0.10965        0.85850       -2.62556
C         -4.89761        3.33309        0.59789
C         -4.05396        0.92237        0.79136
H         -1.74840        4.83162        0.15504
H         -2.87705        4.31012       -1.09075
H         -3.30840        5.64605       -0.02776
H         -5.06804        3.43110       -0.48318
H         -5.57703        4.05808        1.07149
H         -4.09911        0.52291       -0.23077
C         -5.23302        1.88089        1.04390
C         -3.92262       -0.19743        1.80065
H         -3.33349        4.05403        1.93227
H         -5.47120        1.87338        2.11644
H         -6.13924        1.51434        0.53815
H         -4.80234       -0.84515        1.79631
H         -3.04736       -0.81583        1.59184
H         -3.80842        0.20208        2.81006
C         -1.21037       -3.89988        0.18416
C         -1.08735       -3.29208        1.46034
C         -0.66736       -1.97389        1.52258
C         -0.44772       -1.24942        0.38089
C         -0.66936       -1.80145       -0.85235
C         -1.08993       -3.11169       -0.98845
O         -1.41224       -5.30204        0.08282
C         -1.36767       -4.05256        2.76573
H         -0.49606       -1.49465        2.47009
H         -0.49006       -1.18730       -1.71722
C         -1.37504       -3.65387       -2.39710
C          4.53702        0.70967       -0.61179
C          3.82721       -0.50308       -0.80106
C          2.48561       -0.53344       -0.46334
C          1.86899        0.55147        0.10216
C          2.57271        1.69454        0.37633
C          3.92090        1.79114        0.06991
O          5.84947        0.85347       -1.13528
C          4.46911       -1.76472       -1.39916
H          1.89439       -1.41152       -0.65430
H          2.04789        2.51766        0.82982
C          4.68570        3.06835        0.45191
C         -0.08091       -4.74782        3.23518
C         -1.83676       -3.08416        3.87560
C         -2.48964       -5.08835        2.57034
C         -2.44819       -4.75681       -2.36392
C         -1.91562       -2.52885       -3.31038
C         -0.07191       -4.19614       -3.00391
C         -0.20783       -6.05320       -0.00587
H          0.71340       -4.01945        3.39702
H         -0.24487       -5.28254        4.17042
H          0.27189       -5.46385        2.49696
H         -2.68487       -2.48891        3.53898
H         -2.14773       -3.63529        4.76281
H         -1.04178       -2.40660        4.18347
H         -2.19973       -5.85689        1.85795
H         -2.73299       -5.58447        3.50955
H         -3.39335       -4.60880        2.19564
H         -2.11097       -5.62304       -1.80061
H         -3.36082       -4.38938       -1.89583
H         -2.69500       -5.09397       -3.37033
H         -2.76660       -2.02949       -2.84788
H         -1.15500       -1.77949       -3.52369
H         -2.24372       -2.93176       -4.26815
H          0.34238       -4.99778       -2.39684
H         -0.24080       -4.58536       -4.00756
H          0.67880       -3.40882       -3.06948
H         -0.17959       -6.79150        0.79543
H         -0.17360       -6.58264       -0.95777
H          0.65834       -5.39505        0.07462
C          5.88970        1.35205       -2.46653
C          4.30175       -1.74156       -2.92613
C          5.95956       -1.85983       -1.02688
C          3.78527       -3.03865       -0.84958
C          4.07599        3.71131        1.71853
C          6.15897        2.75742        0.77329
C          4.59702        4.07890       -0.70161
H          3.24672       -1.70316       -3.19669
H          4.78580       -0.87139       -3.36282
H          4.73520       -2.63213       -3.38046
H          6.39853       -2.78476       -1.40011
H          6.52749       -1.03357       -1.44684
H          6.08676       -1.83623        0.05490
H          4.32025       -3.93292       -1.16843
H          3.76744       -3.03007        0.23993
H          2.76162       -3.13568       -1.20831
H          3.08067        4.11044        1.52921
H          4.00666        2.98434        2.52738
H          4.69171        4.54068        2.06593
H          6.22987        2.00828        1.56117
H          6.68333        2.37468       -0.09873
H          6.68452        3.65177        1.10709
H          5.03818        3.67880       -1.61119
H          5.11886        5.00257       -0.45269
H          3.55797        4.32552       -0.91853
H          6.47238        2.27267       -2.49437
H          6.37412        0.62349       -3.11634
H          4.87990        1.54855       -2.82920
