111
-148.55269195
P         -1.58579        2.72969        0.90749
P         -0.51408       -0.21339        0.41545
C         -1.28479        1.62551        2.31688
C         -0.89724        0.32038        2.09700
C         -0.34901        4.10566        0.90575
C          0.54261        4.02565       -0.31526
C         -1.41185        2.09539        3.60863
H         -1.67116        3.12786        3.77597
C         -1.18005        1.24744        4.67778
H         -1.28369        1.61370        5.68613
C         -0.81024       -0.06476        4.45428
H         -0.62472       -0.72375        5.28646
C         -0.65759       -0.52626        3.15943
H         -0.33391       -1.53703        2.96909
Pd        -1.65897        1.30580       -0.91658
Cl        -3.07395        2.72014       -1.91908
Cl        -1.45920       -0.20067       -2.57349
C         -1.22154        5.37543        0.96974
C         -3.15084        3.70709        1.07927
H          1.11106        3.09385       -0.33440
H         -0.05224        4.06392       -1.23014
H          1.25464        4.85368       -0.34540
H         -1.31802        5.78622       -0.04458
H         -0.71658        6.15795        1.55591
H         -3.56370        3.79078        0.06590
C         -2.63823        5.08273        1.54101
C         -4.15942        3.05118        1.99819
H          0.23394        3.99023        1.82869
H         -2.60677        5.10210        2.63889
H         -3.34940        5.87217        1.25325
H         -5.08365        3.63086        2.05261
H         -4.41059        2.04521        1.65446
H         -3.77124        2.96219        3.01291
C         -0.61123       -4.74336       -0.03695
C         -1.66108       -3.96562       -0.58987
C         -1.62823       -2.59280       -0.40731
C         -0.56773       -1.98976        0.21559
C          0.50355       -2.72576        0.65117
C          0.52934       -4.10343        0.51132
O         -0.71414       -6.15967       -0.00526
C         -2.82459       -4.58748       -1.37862
H         -2.42823       -1.96873       -0.76585
H          1.32828       -2.20192        1.10384
C          1.77398       -4.87918        0.97026
C          3.64392        1.34954       -0.60361
C          3.19113        1.37241        0.74028
C          1.93785        0.85533        1.01963
C          1.12794        0.38796        0.01861
C          1.52101        0.45541       -1.29123
C          2.75535        0.97215       -1.64263
O          4.99284        1.67749       -0.90350
C          4.04447        1.93052        1.88934
H          1.57407        0.81291        2.03089
H          0.82668        0.11996       -2.04121
C          3.10373        1.12202       -3.13160
C         -3.97189       -4.92528       -0.41502
C         -3.34832       -3.59749       -2.44458
C         -2.37175       -5.85330       -2.12910
C          3.04221       -4.00420        0.84010
C          1.60641       -5.28329        2.44275
C          1.99936       -6.12855        0.09951
C         -1.35555       -6.66848        1.15734
H         -4.32100       -4.02920        0.09749
H         -4.81630       -5.35877       -0.95029
H         -3.65344       -5.63691        0.34300
H         -3.84203       -2.73947       -1.99117
H         -2.53263       -3.23214       -3.06796
H         -4.07787       -4.07878       -3.09538
H         -2.06316       -6.63478       -1.43924
H         -3.17782       -6.25502       -2.74253
H         -1.52761       -5.63091       -2.78099
H          3.12767       -3.59193       -0.16506
H          3.03785       -3.17862        1.55038
H          3.93892       -4.59087        1.03846
H          1.47472       -4.40281        3.07132
H          0.73604       -5.92049        2.57974
H          2.48078       -5.82626        2.80071
H          2.07462       -5.85449       -0.95225
H          2.91697       -6.64356        0.38278
H          1.18031       -6.83618        0.20192
H         -1.64447       -5.85242        1.82085
H         -2.24147       -7.23381        0.86874
H         -0.67847       -7.34192        1.68258
C          5.87104        0.55928       -0.91598
C          4.92792        0.80893        2.45579
C          4.91715        3.10380        1.40808
C          3.14757        2.47300        3.02559
C          1.82718        1.38485       -3.96395
C          4.04215        2.32012       -3.36355
C          3.76011       -0.17266       -3.63339
H          4.31606       -0.01472        2.82319
H          5.59538        0.41128        1.69512
H          5.53796        1.17195        3.28254
H          4.29970        3.88375        0.96355
H          5.47503        3.54241        2.23502
H          5.63729        2.78125        0.66007
H          2.42398        3.18989        2.63928
H          2.60506        1.67410        3.52903
H          3.74645        2.97852        3.78278
H          1.17387        0.51411       -3.98843
H          1.26391        2.22377       -3.55592
H          2.08048        1.62276       -4.99670
H          4.23649        2.46599       -4.42580
H          3.59965        3.23504       -2.97078
H          5.00029        2.17531       -2.87088
H          4.67577       -0.38770       -3.08770
H          4.00779       -0.09995       -4.69205
H          3.08860       -1.02070       -3.50096
H          5.32895       -0.35354       -0.66554
H          6.31958        0.45662       -1.90389
H          6.67174        0.71666       -0.19349
