111
-148.55092771
P         -2.43654        2.19832        1.09508
P          0.04642        0.32239        0.50202
C         -1.38928        1.63021        2.46171
C         -0.27860        0.86216        2.18983
C         -2.98352        3.94509        1.37960
C         -2.19763        4.93439        0.54699
C         -1.69227        1.96217        3.76693
H         -2.57256        2.54669        3.97834
C         -0.87318        1.52976        4.79576
H         -1.10942        1.78839        5.81505
C          0.24521        0.76713        4.51859
H          0.88188        0.42940        5.31968
C          0.54159        0.42875        3.21043
H          1.40047       -0.18094        2.97640
Pd        -1.38641        1.53567       -0.86374
Cl        -2.74167        2.97777       -1.91190
Cl        -0.07825        0.84341       -2.55853
C         -4.49020        3.88033        1.07196
C         -4.08098        1.35212        1.00937
H         -2.33310        4.74336       -0.51757
H         -2.51840        5.96088        0.73869
H         -1.12765        4.86768        0.75769
H         -4.64296        4.11182        0.00877
H         -5.03028        4.66266        1.62678
H         -4.21747        1.05999       -0.04050
C         -5.07127        2.47105        1.38466
C         -4.11804        0.13893        1.91344
H         -2.82747        4.14296        2.44772
H         -5.29690        2.39849        2.45740
H         -6.03256        2.32017        0.87053
H         -3.35583       -0.58947        1.62700
H         -3.92677        0.42183        2.95021
H         -5.09102       -0.35672        1.87836
C         -1.11849       -4.05077       -0.02697
C         -1.23549       -3.44902        1.25255
C         -0.87314       -2.11939        1.38771
C         -0.48454       -1.37884        0.30201
C         -0.48427       -1.92625       -0.95318
C         -0.83098       -3.24922       -1.16098
O         -1.24589       -5.45854       -0.16459
C         -1.70230       -4.22651        2.49299
H         -0.87236       -1.64702        2.35370
H         -0.20127       -1.29403       -1.77576
C         -0.85301       -3.79498       -2.59696
C          4.37229        0.71493       -0.84978
C          3.89148       -0.53259       -0.37009
C          2.56914       -0.61128        0.03316
C          1.76499        0.49836        0.04602
C          2.26047        1.73012       -0.29055
C          3.57342        1.88114       -0.70663
O          5.60666        0.77963       -1.54566
C          4.74544       -1.80782       -0.26987
H          2.14358       -1.55704        0.32397
H          1.59763        2.57822       -0.24884
C          4.07381        3.30591       -0.99699
C         -2.71351       -5.32327        2.11263
C         -0.48282       -4.84919        3.18931
C         -2.41450       -3.28608        3.49196
C         -1.25944       -2.68463       -3.59327
C          0.54999       -4.29840       -2.96901
C         -1.88274       -4.92931       -2.74656
C         -0.01761       -6.16366       -0.03437
H         -3.56097       -4.89506        1.57836
H         -2.26069       -6.07540        1.47141
H         -3.09263       -5.83130        2.99901
H          0.03840       -5.53831        2.52904
H          0.22562       -4.07711        3.48884
H         -0.78103       -5.39874        4.08179
H         -1.72715       -2.56312        3.92865
H         -3.22165       -2.74153        3.00321
H         -2.84649       -3.85369        4.31585
H         -2.19276       -2.21251       -3.28779
H         -0.49591       -1.91236       -3.67213
H         -1.40285       -3.09470       -4.59260
H          1.27717       -3.48902       -2.90888
H          0.87714       -5.08789       -2.29637
H          0.56712       -4.69196       -3.98496
H         -1.62140       -5.78684       -2.13180
H         -2.87287       -4.59066       -2.44335
H         -1.94242       -5.27073       -3.77968
H         -0.09540       -6.88534        0.77867
H          0.19195       -6.70846       -0.95471
H          0.79935       -5.47075        0.17143
C          5.46202        0.55284       -2.93799
C          4.54540       -2.44871        1.12143
C          4.29923       -2.80651       -1.35120
C          6.24946       -1.52208       -0.42124
C          3.44950        3.80593       -2.31054
C          3.64837        4.24450        0.15384
C          5.60750        3.38110       -1.09349
H          5.19191       -3.31711        1.24558
H          4.78423       -1.73614        1.91043
H          3.52021       -2.78412        1.26962
H          3.24775       -3.06562       -1.23138
H          4.42661       -2.38971       -2.34849
H          4.87940       -3.72717       -1.29477
H          6.83967       -2.42169       -0.24819
H          6.48438       -1.16244       -1.42006
H          6.56982       -0.76250        0.29099
H          3.76624        4.82524       -2.52963
H          3.74040        3.17648       -3.14914
H          2.36149        3.79712       -2.25276
H          4.05500        5.24512        0.00924
H          2.56596        4.34145        0.21891
H          4.01161        3.86902        1.11006
H          6.06964        2.96519       -0.19890
H          5.94419        4.41174       -1.20300
H          5.97694        2.82229       -1.94998
H          5.01647       -0.42505       -3.11335
H          4.81792        1.31366       -3.37553
H          6.44241        0.59367       -3.41307
