111
-148.55503582
P         -2.54961        2.07371        0.85102
P          0.14701        0.40486        0.49508
C         -1.44549        1.81344        2.26636
C         -0.26495        1.12073        2.09943
C         -3.35166        3.74051        0.87627
C         -2.77003        4.63965       -0.19279
C         -1.79244        2.29035        3.51406
H         -2.72634        2.81238        3.64402
C         -0.94852        2.08072        4.59120
H         -1.21891        2.45315        5.56579
C          0.23682        1.39183        4.41979
H          0.89247        1.22634        5.25878
C          0.57729        0.90598        3.17015
H          1.49138        0.35223        3.02194
Pd        -1.29933        1.44509       -0.97119
Cl        -2.98969        2.03548       -2.32706
Cl        -0.00533        0.80173       -2.69746
C         -4.84452        3.40767        0.69056
C         -4.04377        0.98460        0.88187
H         -2.91443        4.20572       -1.18356
H         -3.24635        5.62291       -0.19054
H         -1.69593        4.78179       -0.05104
H         -5.09217        3.48621       -0.37702
H         -5.47109        4.15903        1.19479
H         -4.15164        0.58757       -0.13651
C         -5.18155        1.97444        1.19297
C         -3.88896       -0.13947        1.88317
H         -3.17309        4.16013        1.87439
H         -5.34503        1.99543        2.27930
H         -6.12818        1.61811        0.75882
H         -3.03948       -0.77766        1.63091
H         -3.71577        0.25560        2.88590
H         -4.78277       -0.76640        1.92221
C         -1.18589       -3.94385        0.24759
C         -1.07406       -3.32026        1.51731
C         -0.64472       -2.00440        1.56748
C         -0.40979       -1.29559        0.41897
C         -0.62623       -1.86049       -0.80961
C         -1.04623       -3.17213       -0.93373
O         -1.40209       -5.34489        0.16039
C         -1.38399       -4.05810        2.82935
H         -0.48356       -1.51304        2.51058
H         -0.45445       -1.25113       -1.67970
C         -1.30925       -3.73674       -2.33797
C          4.50618        0.83004       -0.75556
C          3.79267       -0.36061       -1.05388
C          2.46875       -0.44382       -0.65917
C          1.87509        0.55879        0.06160
C          2.59184        1.66032        0.45000
C          3.92511        1.80455        0.09993
O          5.75924        1.07920       -1.37200
C          4.39431       -1.56721       -1.79385
H          1.87612       -1.30006       -0.93037
H          2.09322        2.41767        1.03108
C          4.69498        3.00451        0.67781
C         -1.87279       -3.06937        3.91252
C         -2.50605       -5.09310        2.62948
C         -0.10986       -4.74937        3.33746
C         -1.80220       -2.62126       -3.28903
C         -0.00420       -4.31970       -2.90150
C         -2.40609       -4.81612       -2.30672
C         -0.20627       -6.11344        0.11753
H         -1.08281       -2.38784        4.22439
H         -2.71274       -2.47873        3.54851
H         -2.20274       -3.60421        4.80284
H         -2.20508       -5.87578        1.93749
H         -2.77106       -5.57099        3.57227
H         -3.39974       -4.61700        2.22733
H         -0.29673       -5.27212        4.27517
H          0.25927       -5.47489        2.61668
H          0.68163       -4.02019        3.50903
H         -1.01904       -1.89506       -3.50121
H         -2.11702       -3.03876       -4.24501
H         -2.65192       -2.09182       -2.85882
H          0.37581       -5.11942       -2.27020
H         -0.15663       -4.72326       -3.90212
H          0.76614       -3.55124       -2.96147
H         -2.63532       -5.17115       -3.31114
H         -2.10065       -5.67595       -1.71592
H         -3.32186       -4.41931       -1.86980
H          0.66693       -5.46389        0.19114
H         -0.20084       -6.82561        0.94257
H         -0.16395       -6.67427       -0.81595
C          5.63643        1.75938       -2.61007
C          5.93147       -1.52160       -1.83247
C          3.99895       -2.87066       -1.06331
C          3.84200       -1.61099       -3.22845
C          4.39278        3.12837        2.18802
C          6.21898        2.84472        0.53783
C          4.24528        4.29204       -0.03211
H          6.28628       -0.67878       -2.42083
H          6.33819       -1.42158       -0.82676
H          6.34050       -2.42877       -2.27664
H          4.48251       -3.73366       -1.52037
H          4.30052       -2.83157       -0.01701
H          2.92512       -3.04708       -1.09830
H          4.12331       -0.72006       -3.78620
H          4.22316       -2.47842       -3.76665
H          2.75396       -1.66881       -3.22477
H          4.62883        2.19846        2.70463
H          4.98625        3.92334        2.63890
H          3.34569        3.36078        2.37460
H          6.52231        2.85155       -0.50636
H          6.74683        3.65562        1.03919
H          6.54827        1.90273        0.97498
H          4.45714        4.24847       -1.09859
H          4.75897        5.16178        0.37668
H          3.17363        4.44842        0.08709
H          5.02395        1.17767       -3.29682
H          5.16656        2.72962       -2.45888
H          6.62718        1.90200       -3.04204
