171
-217.83910969
P         -1.45569        0.19240       -0.41661
P          1.66740       -0.72796        0.37332
C         -0.44344        1.03165       -1.64933
C          1.05824       -1.71700       -1.01174
C          0.46288        0.28105       -2.38744
C          1.28021        0.92979       -3.33289
C          1.11999        2.29079       -3.53715
C          0.20035        3.01672       -2.80885
C         -0.57849        2.38151       -1.86211
C          1.06699       -3.07379       -0.78813
C          0.56037       -3.94014       -1.73729
C          0.02972       -3.43414       -2.90415
C         -0.00058       -2.07065       -3.14369
C          0.53202       -1.18858       -2.18462
Cl         0.68919       -1.04941        3.38052
Cl        -2.30225       -1.58460        2.38682
C         -0.61606       -1.57505       -4.40528
C          2.29067        0.17207       -4.12125
H          0.09262        4.07625       -2.97427
H         -1.29888        2.94050       -1.29070
H          1.46352       -3.45244        0.14266
H          0.57188       -5.00327       -1.56086
H          1.72069        2.78117       -4.28400
H         -0.38090       -4.10213       -3.64259
C         -4.27940       -2.61659       -2.57757
C         -3.71384       -3.03406       -1.37850
C         -2.86121       -2.15727       -0.72408
C         -2.56746       -0.93158       -1.26347
C         -3.12181       -0.54005       -2.45763
C         -4.00027       -1.37576       -3.13788
H         -4.97136       -3.26264       -3.08375
H         -2.44652       -2.42006        0.23251
H         -2.85401        0.42120       -2.86068
C         -4.11871        3.27752        1.61364
C         -3.26378        2.53437        2.41601
C         -2.44143        1.60157        1.79953
C         -2.49147        1.40529        0.43924
C         -3.36958        2.12993       -0.33002
C         -4.19235        3.09321        0.23987
H         -4.74891        4.01705        2.07248
H         -1.76648        1.01512        2.39306
H         -3.40641        1.94091       -1.38819
C          5.61640       -2.56745        1.63022
C          4.72139       -2.19425        2.62631
C          3.50653       -1.65203        2.23395
C          3.20191       -1.49811        0.90643
C          4.09535       -1.87658       -0.06589
C          5.32765       -2.41831        0.27907
H          6.56621       -2.98567        1.90574
H          2.78120       -1.35565        2.96915
H          3.81888       -1.74645       -1.09851
C          2.79808        3.63311       -0.13870
C          3.54393        2.65114       -0.77737
C          3.13793        1.33119       -0.62924
C          2.03748        1.01721        0.12999
C          1.32166        2.00202        0.77059
C          1.69348        3.33532        0.65117
H          3.10632        4.65571       -0.24790
H          3.69035        0.53238       -1.09167
H          0.47752        1.73181        1.37952
Pd        -0.41586       -0.83180        1.43644
C         -4.95140       -5.24526       -1.62242
C         -4.00442       -4.40238       -0.74742
C         -4.66100       -4.19565        0.63026
C         -2.68011       -5.17086       -0.57987
H         -5.13617       -6.21767       -1.16606
H         -5.91501       -4.75150       -1.74636
H         -4.52178       -5.41967       -2.60877
H         -4.00428       -3.64621        1.30367
H         -5.58784       -3.63069        0.53384
H         -4.89430       -5.15140        1.09896
H         -2.19187       -5.30866       -1.54430
H         -1.99012       -4.63412        0.07028
H         -2.85158       -6.15481       -0.14398
C         -4.59676       -2.01887       -5.50507
C         -4.71624       -0.92937       -4.42166
C         -4.11509        0.37507       -4.98242
C         -6.20110       -0.68718       -4.09747
H         -5.07790       -1.69982       -6.42954
H         -3.55262       -2.23262       -5.72922
H         -5.07066       -2.94843       -5.19328
H         -4.60515        0.65718       -5.91417
H         -4.24310        1.20163       -4.28415
H         -3.05157        0.25952       -5.18922
H         -6.67484       -1.59680       -3.72942
H         -6.30748        0.07873       -3.32937
H         -6.74628       -0.35781       -4.98182
C         -2.27630        1.79150        4.64335
C         -3.26786        2.73880        3.93778
C         -4.67944        2.45043        4.48169
C         -2.87466        4.19148        4.25925
H         -2.29847        1.94215        5.72242
H         -2.52625        0.74820        4.45129
H         -1.25494        1.96719        4.30862
H         -4.98270        1.43193        4.23990
H         -4.71103        2.56421        5.56511
H         -5.41592        3.12946        4.05376
H         -1.88622        4.41885        3.86309
H         -3.57957        4.89852        3.82346
H         -2.85378        4.36112        5.33560
C         -6.58432        3.78224       -0.08304
C         -5.14471        3.95321       -0.60206
C         -5.11356        3.54626       -2.08889
C         -4.72003        5.42857       -0.48904
H         -6.88707        2.73623       -0.12804
H         -6.67651        4.11340        0.95055
H         -7.28601        4.36284       -0.68169
H         -5.40831        2.50466       -2.21533
H         -5.80255        4.15717       -2.67194
H         -4.11807        3.67876       -2.51245
H         -3.69600        5.56150       -0.83806
H         -5.36743        6.06854       -1.08828
H         -4.76872        5.77543        0.54260
C          3.96396       -3.27797        4.75576
C          5.02297       -2.35589        4.12290
C          4.97648       -0.97376        4.80073
C          6.41471       -2.97196        4.36205
H          2.96373       -2.85750        4.65833
H          3.96465       -4.25406        4.27118
H          4.16043       -3.42717        5.81725
H          5.20466       -1.05237        5.86349
H          5.70216       -0.29842        4.34795
H          3.99125       -0.51894        4.70462
H          6.48832       -3.96160        3.91154
H          7.19974       -2.34170        3.94456
H          6.61142       -3.08005        5.42865
C          7.65042       -2.02064       -0.57769
C          6.35879       -2.83424       -0.77950
C          5.84062       -2.57786       -2.20897
C          6.66075       -4.33671       -0.63261
H          8.08747       -2.20747        0.40249
H          8.39578       -2.27910       -1.32966
H          7.44851       -0.95251       -0.65572
H          5.62797       -1.52057       -2.36609
H          6.58260       -2.87763       -2.94889
H          4.93157       -3.14629       -2.40495
H          7.37668       -4.66622       -1.38541
H          7.07980       -4.56283        0.34717
H          5.75094       -4.92490       -0.75136
C          4.42184        3.95254       -2.73645
C          4.80627        3.03408       -1.56364
C          5.52410        1.79098       -2.12588
C          5.78236        3.77060       -0.62687
H          3.92666        4.85722       -2.38560
H          5.30360        4.25161       -3.30291
H          3.74328        3.44163       -3.41748
H          5.82846        1.11894       -1.32367
H          4.88033        1.24098       -2.81091
H          6.42107        2.07680       -2.67506
H          6.04300        3.14383        0.22582
H          6.70316        4.03007       -1.14903
H          5.34654        4.69254       -0.24395
C          1.58295        5.80422        1.27556
C          0.93147        4.41658        1.43390
C          0.93690        4.04900        2.92955
C         -0.51662        4.50245        0.92495
H          2.61444        5.79558        1.62740
H          1.57332        6.12650        0.23449
H          1.04258        6.55253        1.85529
H          0.41799        3.10861        3.10736
H          1.95795        3.94076        3.29474
H          0.44750        4.82006        3.52379
H         -1.08649        5.24397        1.48438
H         -0.53916        4.78634       -0.12658
H         -1.02311        3.54565        1.02850
H         -1.59932       -2.02269       -4.55136
H          3.13642        0.80631       -4.39043
H          0.00050       -1.83190       -5.26788
H         -0.74577       -0.49246       -4.39225
H          1.85687       -0.21249       -5.04503
H          2.67972       -0.67387       -3.55223
