59
-75.79736592
Cl         1.48070        0.61456        2.39789
P          1.49934        0.12412       -0.78773
P         -1.65751       -0.24254       -0.77668
C          0.52705        0.21771       -2.35361
H          0.19467        1.25116       -2.48297
H          1.18464       -0.02667       -3.19367
C         -0.65021       -0.71094       -2.25448
H         -0.31329       -1.74271       -2.13684
H         -1.28840       -0.67114       -3.14268
C          2.59701       -1.36424       -0.75133
H          2.60707       -1.76982       -1.77023
C          2.76483        1.46376       -0.61279
H          2.67512        1.83654        0.41491
C         -2.95667       -1.46827       -0.26489
H         -2.70825       -1.78494        0.75600
C         -2.72663        1.20957       -1.20106
H         -2.42726        1.55664       -2.19796
C          3.97316       -0.78046       -0.38286
H          4.11397       -0.86827        0.70326
H          4.77829       -1.37993       -0.83427
C          4.09543        0.71195       -0.79637
H          4.39513        0.77531       -1.85155
H          4.89790        1.20979       -0.23091
C         -4.24843       -0.62458       -0.27233
H         -5.10492       -1.25708       -0.54730
H         -4.46314       -0.26548        0.74514
C         -4.13914        0.59253       -1.22866
H         -4.88458        1.35834       -0.96821
H         -4.38739        0.27345       -2.25191
C          2.07920       -2.40740        0.23149
H          1.02539       -2.62068        0.00862
H          2.07559       -1.97182        1.23976
C          2.54335        2.60015       -1.60398
H          2.60815        2.19835       -2.62375
H          1.51496        2.97209       -1.50469
C         -3.01233       -2.69522       -1.17532
H         -4.00125       -3.16605       -1.08563
H         -2.94674       -2.36487       -2.21998
C         -2.57364        2.34216       -0.18916
H         -3.41786        3.03753       -0.29672
H         -2.67122        1.92450        0.82161
C          2.88833       -3.69541        0.21625
H          2.49725       -4.43297        0.92081
H          3.93144       -3.51174        0.47976
H          2.88234       -4.15228       -0.77519
C          3.52852        3.74553       -1.42403
H          4.55765        3.41029       -1.56457
H          3.46214        4.16690       -0.41916
H          3.34855        4.55658       -2.13339
C         -1.93564       -3.72402       -0.86063
H         -2.04988       -4.11522        0.15226
H         -0.93688       -3.29375       -0.91919
H         -1.96758       -4.57424       -1.54576
C         -1.26468        3.10522       -0.32824
H         -0.40381        2.44861       -0.20551
H         -1.17826        3.56395       -1.31508
H         -1.17390        3.90163        0.41380
Cl        -1.79008       -0.05792        2.34574
Pd        -0.07988        0.04971        0.89550
