111
-148.55386104
P         -2.61964        2.15702        0.56288
P          0.05881        0.48585        0.38780
C         -1.52028        2.06789        2.00246
C         -0.33158        1.37813        1.90356
C         -3.40941        3.82474        0.41457
C         -2.78512        4.64181       -0.69549
C         -1.86586        2.67462        3.19318
H         -2.80547        3.19616        3.27294
C         -1.01182        2.59503        4.27981
H         -1.28087        3.06840        5.20997
C          0.18275        1.90835        4.17504
H          0.84604        1.84443        5.02188
C          0.52238        1.29376        2.98313
H          1.44253        0.73854        2.88782
Pd        -1.42425        1.27131       -1.20528
Cl        -3.07766        1.97260       -2.54664
Cl        -0.09147        0.39994       -2.79017
C         -4.89602        3.48014        0.20846
C         -4.12481        1.09117        0.71252
H         -3.25146        5.62636       -0.77734
H         -1.71487        4.78534       -0.52873
H         -2.90156        4.14276       -1.65817
H         -5.09967        3.43120       -0.87015
H         -5.53524        4.28890        0.59416
H         -4.21736        0.56045       -0.24460
C         -5.26232        2.11820        0.86563
C         -3.99361        0.11212        1.85897
H         -3.26607        4.32200        1.38228
H         -5.46056        2.26948        1.93565
H         -6.19798        1.71861        0.44584
H         -3.14208       -0.55564        1.71104
H         -3.83718        0.63840        2.80242
H         -4.89078       -0.50210        1.96530
C         -0.98232       -3.92974        0.77988
C         -1.00682       -3.10471        1.93390
C         -0.68217       -1.76620        1.79068
C         -0.41773       -1.23285        0.55673
C         -0.50155       -2.00251       -0.57252
C         -0.82065       -3.34676       -0.50283
O         -1.07759       -5.34046        0.91379
C         -1.33775       -3.64998        3.33185
H         -0.61588       -1.12164        2.64900
H         -0.30262       -1.52864       -1.51782
C         -0.95213       -4.14728       -1.80735
C          4.44839        0.75319       -0.78746
C          3.57796        1.83514       -1.07882
C          2.25621        1.74464       -0.67278
C          1.78078        0.60760       -0.07499
C          2.59173       -0.48115        0.11292
C          3.92261       -0.45687       -0.26756
O          5.84775        0.89270       -0.98668
C          4.04925        3.09488       -1.82224
H          1.57290        2.56213       -0.82649
H          2.16427       -1.36199        0.56000
C          4.76730       -1.73043       -0.10507
C         -1.97550       -2.55116        4.21240
C         -2.35401       -4.80344        3.24935
C         -0.04490       -4.13028        4.00819
C         -1.48007       -3.24448       -2.94637
C          0.42762       -4.68957       -2.21019
C         -1.95512       -5.30462       -1.65235
C          0.17860       -5.99334        1.04994
H         -2.83798       -2.10806        3.71582
H         -2.31432       -2.96546        5.16169
H         -1.26744       -1.75734        4.44546
H         -3.25667       -4.48288        2.73020
H         -1.94458       -5.65502        2.71156
H         -2.63821       -5.14738        4.24354
H         -0.24592       -4.51029        5.00951
H          0.42721       -4.92530        3.43604
H          0.67126       -3.31332        4.09417
H         -2.39709       -2.73817       -2.64624
H         -0.75135       -2.48847       -3.23445
H         -1.69844       -3.83290       -3.83711
H          0.36733       -5.26257       -3.13505
H          1.13136       -3.87218       -2.36528
H          0.83789       -5.33712       -1.43881
H         -2.09560       -5.83063       -2.59629
H         -1.61375       -6.03091       -0.91920
H         -2.92450       -4.93040       -1.32486
H          0.19487       -6.56252        1.97929
H          0.32280       -6.68819        0.22285
H          0.98886       -5.26307        1.05628
C          6.54672        1.39316        0.14587
C          2.88493        3.72145       -2.62332
C          4.55867        4.12729       -0.80563
C          5.15804        2.75607       -2.83529
C          5.85672       -1.81441       -1.18943
C          5.40712       -1.74187        1.29116
C          3.88467       -2.99164       -0.25546
H          2.41242        2.97811       -3.26502
H          2.12401        4.14148       -1.96729
H          3.24317        4.53214       -3.25733
H          3.77243        4.39311       -0.09943
H          5.39804        3.73716       -0.23502
H          4.88617        5.03856       -1.30545
H          5.44597        3.63567       -3.41045
H          6.04947        2.38256       -2.33739
H          4.81900        1.99046       -3.53236
H          6.41325       -2.74830       -1.11476
H          5.41307       -1.76190       -2.18312
H          6.56968       -0.99861       -1.09944
H          4.64129       -1.71232        2.06596
H          6.00364       -2.64158        1.43999
H          6.05574       -0.88083        1.43426
H          3.18508       -3.09776        0.57240
H          4.49686       -3.89300       -0.27332
H          3.31473       -2.95600       -1.18343
H          5.85270        1.59654        0.96238
H          7.28688        0.66251        0.47145
H          7.06972        2.31042       -0.12425
