111
-148.55046140
P         -2.60359        1.96260       -0.49153
P          0.06709        0.49406        0.40529
C         -1.90426        2.28473        1.14736
C         -0.73570        1.65909        1.52444
C         -3.07853        3.53295       -1.34836
C         -2.26236        3.73358       -2.60662
C         -2.52707        3.16104        2.01258
H         -3.43172        3.65976        1.70521
C         -1.98320        3.39732        3.26334
H         -2.47009        4.07967        3.94081
C         -0.81732        2.76067        3.64340
H         -0.39439        2.94321        4.61757
C         -0.19145        1.88879        2.77050
H          0.71912        1.38411        3.05196
Pd        -1.09588        0.62024       -1.60618
Cl        -2.45860        0.51302       -3.37818
Cl         0.58581       -0.61187       -2.44975
C         -4.59274        3.36199       -1.59985
C         -4.22945        1.07958       -0.49763
H         -2.51982        4.67037       -3.10657
H         -1.19169        3.74929       -2.38846
H         -2.44226        2.92340       -3.31490
H         -4.85474        3.81018       -2.56913
H         -5.16338        3.92965       -0.85034
H         -4.03064        0.05097       -0.82861
C         -5.02782        1.86935       -1.55469
C         -4.87207        1.08875        0.87258
H         -2.88539        4.34670       -0.63611
H         -6.10432        1.78356       -1.34521
H         -4.87920        1.41720       -2.54651
H         -4.21081        0.65610        1.62500
H         -5.09882        2.10959        1.18440
H         -5.80976        0.52795        0.88036
C         -1.24359       -3.78800        1.19745
C          0.01211       -3.54612        0.58362
C          0.39555       -2.23205        0.37355
C         -0.37875       -1.19098        0.81347
C         -1.54205       -1.41964        1.50167
C         -1.97797       -2.70996        1.75579
O         -1.79252       -5.09770        1.19879
C          0.92406       -4.67579        0.08184
H          1.28963       -2.00099       -0.17923
H         -2.11909       -0.57026        1.82268
C         -3.25430       -2.91641        2.58582
C          4.56007        1.20816        0.15675
C          3.70897        1.66977       -0.87934
C          2.34569        1.46373       -0.74807
C          1.83573        0.74896        0.30376
C          2.66478        0.20289        1.24927
C          4.03662        0.38875        1.18909
O          5.92763        1.59158        0.17844
C          4.23727        2.38461       -2.13327
H          1.65821        1.85430       -1.47866
H          2.22068       -0.37318        2.04255
C          4.93349       -0.26637        2.25146
C          2.40864       -4.26261        0.19216
C          0.75404       -5.95222        0.92566
C          0.59963       -4.96663       -1.39130
C         -3.37707       -1.82044        3.66859
C         -4.47738       -2.84235        1.65929
C         -3.23226       -4.26735        3.32431
C         -2.60017       -5.37926        0.06217
H          3.06242       -5.09657       -0.06206
H          2.65489       -3.44564       -0.48412
H          2.64433       -3.95139        1.20897
H          0.93380       -5.74215        1.97949
H         -0.24975       -6.35891        0.83369
H          1.45278       -6.72656        0.60996
H          1.24068       -5.75498       -1.78478
H         -0.43444       -5.28184       -1.51115
H          0.74646       -4.07518       -2.00077
H         -3.54354       -0.83662        3.23502
H         -4.21762       -2.02411        4.33161
H         -2.47392       -1.77566        4.27660
H         -4.44389       -3.62182        0.90134
H         -5.40269       -2.95952        2.22270
H         -4.51420       -1.88312        1.14440
H         -3.23017       -5.10151        2.62745
H         -2.34176       -4.35007        3.94649
H         -4.10617       -4.37740        3.96594
H         -2.18566       -6.22848       -0.48084
H         -3.60883       -5.63818        0.38373
H         -2.64135       -4.51200       -0.59817
C          6.17493        2.82160        0.84784
C          5.64624        1.88677       -2.50370
C          3.32530        2.09244       -3.34749
C          4.25786        3.90054       -1.88722
C          4.29686       -1.57201        2.77715
C          6.30465       -0.64452        1.66175
C          5.11278        0.70080        3.43125
H          5.64725        0.80566       -2.63856
H          5.99311        2.34473       -3.42966
H          6.36902        2.12618       -1.72785
H          3.76690        2.47874       -4.26575
H          3.17785        1.01991       -3.47171
H          2.34826        2.56125       -3.24137
H          4.90478        4.15588       -1.05135
H          4.61787        4.43379       -2.76671
H          3.25788        4.26692       -1.65612
H          4.05349       -2.23956        1.95187
H          4.98327       -2.09760        3.44067
H          3.38801       -1.37920        3.34513
H          6.91564       -1.16958        2.39557
H          6.18347       -1.29297        0.79464
H          6.85704        0.23660        1.34481
H          5.73651        0.25846        4.20763
H          4.14894        0.95129        3.87386
H          5.58130        1.62864        3.11221
H          5.24517        3.23503        1.24064
H          6.87433        2.65659        1.66728
H          6.62511        3.53207        0.15482
