105
-153.05981435
Cl         0.59990        3.67252        1.54560
Pd        -0.07759        1.98779        0.21903
P         -0.74686        0.27320       -1.29442
N          0.09208       -1.13605       -1.97090
C          0.17041       -2.47048       -1.58467
C         -0.16167       -2.96212       -0.29270
C          0.14806       -4.29990        0.03725
C         -0.01534       -4.75907        1.46831
C          0.78477       -6.02590        1.80394
C          0.54655       -7.10516        0.74400
C          0.98020       -6.61502       -0.64729
C          0.65392       -5.16816       -0.93262
C          0.90011       -4.68308       -2.20997
C          0.68296       -3.36639       -2.52245
H          0.92175       -3.00291       -3.50702
H          1.29744       -5.35336       -2.95351
H          2.06200       -6.75279       -0.76305
H          1.06724       -8.03539        1.01181
H          1.85378       -5.78134        1.84006
H          0.27681       -3.94091        2.13894
C         -0.73966       -2.10051        0.77347
C          0.09308       -1.12615        1.38273
C         -0.35355       -0.46074        2.52445
C         -1.59522       -0.72765        3.04019
C         -2.44695       -1.65026        2.43909
C         -3.79405       -1.89260        3.08024
C         -4.75105       -2.79275        2.27675
C         -3.99550       -3.90756        1.54583
C         -2.94630       -3.30529        0.60177
C         -2.02276       -2.33768        1.29803
H         -2.36989       -4.09446        0.10575
H         -4.68892       -4.56200        0.99889
H         -5.29290       -2.18587        1.54159
H         -4.26613       -0.92090        3.27346
H         -1.93153       -0.20738        3.92097
H          0.27908        0.27899        2.97956
N          1.25528       -0.76383        0.70842
P          1.82591        0.84177        0.96363
C          2.93391        1.32392       -0.35498
C          3.17878        2.65980       -0.56646
C          3.94851        3.05311       -1.64566
C          4.47301        2.10917       -2.51898
C          4.20067        0.76578       -2.29533
C          3.43150        0.37403       -1.21462
H          3.20488       -0.66650       -1.04730
H          4.58678        0.02890       -2.97875
C          5.26749        2.53223       -3.70508
H          4.13274        4.09851       -1.82496
H          2.72671        3.38619        0.09060
C          2.62654        0.89776        2.56563
C          2.53397        1.99996        3.38027
C          3.15814        2.00039        4.61281
C          3.88506        0.89544        5.03582
C          3.95797       -0.21417        4.20409
C          3.33134       -0.21076        2.97011
H          3.37558       -1.07181        2.32145
H          4.50516       -1.08227        4.52972
C          4.53668        0.88230        6.37483
H          3.08183        2.86002        5.25652
H          1.96362        2.85072        3.04884
H          1.10269       -0.85154       -0.29534
H          0.30595       -0.92394       -2.93752
C         -0.62489        1.46738       -2.63627
C         -1.73459        1.99355       -3.25291
C         -1.58051        2.92027       -4.26723
C         -0.31451        3.32071       -4.67400
C          0.79330        2.78411       -4.03234
C          0.63659        1.85702       -3.01847
H          1.49512        1.45069       -2.50879
H          1.77946        3.10243       -4.32398
C         -0.14943        4.34327       -5.74369
H         -2.44626        3.34499       -4.74599
H         -2.71653        1.68981       -2.92980
C         -2.47856       -0.15929       -1.13387
C         -3.03590       -0.92325       -2.13149
C         -4.38047       -1.24726       -2.08193
C         -5.17405       -0.80548       -1.03243
C         -4.59073       -0.03992       -0.03141
C         -3.24708        0.28037       -0.08297
H         -2.79396        0.87341        0.69465
H         -5.19472        0.30639        0.78965
C         -6.61518       -1.17557       -0.97393
H         -4.82118       -1.84934       -2.85802
H         -2.41381       -1.26510       -2.94388
Cl        -2.03729        3.00339       -0.19671
H          0.52234       -7.23697       -1.42709
H          0.53185       -6.39789        2.80693
H         -0.52033       -7.36144        0.72428
H         -1.07648       -4.93871        1.67027
H         -3.49740       -4.55139        2.28127
H         -3.45180       -2.77332       -0.21080
H         -3.62446       -2.33380        4.06980
H         -5.52668       -3.21610        2.93033
H          6.02686        1.78989       -3.95474
H          4.62364        2.66143       -4.57617
H          5.77803        3.47844       -3.52063
H          4.80543        1.89074        6.69244
H          3.86857        0.45955        7.12640
H          5.44983        0.28555        6.36196
H          0.78995        4.20376       -6.28053
H         -0.95892        4.28479       -6.47262
H         -0.14922        5.34867       -5.32052
H         -7.11021       -0.96407       -1.92274
H         -6.73404       -2.23911       -0.76182
H         -7.13785       -0.61816       -0.19546
