75
-122.80726724
P          1.80492       -0.52810        0.14847
C          3.09184       -1.30978       -0.84312
C          2.77094       -2.04143       -1.96366
C          3.77044       -2.66078       -2.69099
C          5.08524       -2.55446       -2.28381
C          5.40161       -1.83684       -1.14774
C          4.39942       -1.21764       -0.42301
H          4.62925       -0.67942        0.48311
H          6.42639       -1.76204       -0.82295
H          5.86502       -3.03596       -2.85107
H          3.52209       -3.22437       -3.57529
H          1.74102       -2.12468       -2.27044
C          1.78913       -1.40411        1.72824
C          1.30887       -0.80231        2.86869
C          1.36471       -1.46424        4.08039
C          1.90000       -2.73484        4.14437
C          2.37577       -3.34210        2.99954
C          2.32095       -2.67275        1.79032
H          2.69793       -3.13438        0.89203
H          2.79096       -4.33535        3.04701
H          1.94087       -3.25528        5.08726
H          0.98345       -0.99158        4.97058
H          0.87417        0.17951        2.80353
C          2.17391        1.21074        0.44574
C          3.32228        1.87228        0.07868
C          3.46040        3.23126        0.32443
C          2.42151        3.90793        0.96373
C          1.26042        3.26066        1.32481
C          1.12654        1.89186        1.04577
O         -0.04852        1.18280        1.33030
C         -1.26126        1.85383        1.13194
C         -1.43353        3.19648        1.50495
C         -2.66901        3.78556        1.35208
C         -3.74732        3.07881        0.82206
C         -3.54434        1.77208        0.40084
C         -2.31310        1.17227        0.53912
P         -1.91171       -0.45756       -0.12444
C         -1.58251       -1.63564        1.18598
C         -1.00026       -2.84240        0.87154
C         -0.83281       -3.79915        1.85630
C         -1.25015       -3.53840        3.14656
C         -1.83239       -2.32495        3.45600
C         -2.00259       -1.37125        2.46895
H         -2.46497       -0.42269        2.69009
H         -2.15405       -2.12052        4.46387
H         -1.11440       -4.28116        3.91559
H         -0.37391       -4.74416        1.61660
H         -0.68879       -3.03363       -0.14356
C         -3.33051       -1.06073       -1.06808
C         -3.93295       -0.26005       -2.01143
C         -5.03165       -0.72027       -2.71359
C         -5.52674       -1.98426       -2.46460
C         -4.92480       -2.78636       -1.51628
C         -3.82599       -2.32110       -0.81770
H         -3.35600       -2.93798       -0.07025
H         -5.31029       -3.77327       -1.31943
H         -6.38209       -2.34550       -3.01194
H         -5.49612       -0.09393       -3.45739
H         -3.52764        0.71962       -2.20975
Pd         0.06319       -0.07798       -1.41969
Cl        -1.33873       -0.03099       -3.17113
Cl         1.70674        0.77945       -2.70458
H         -4.35687        1.22661       -0.04502
C         -5.07037        3.73402        0.64386
H         -5.88200        3.01067        0.73245
H         -5.14117        4.20099       -0.33927
H         -5.23159        4.50675        1.39660
H         -2.79824        4.81254        1.64532
S         -0.05912        4.11142        2.15234
H          2.52278        4.95702        1.17886
C          4.70936        3.94290       -0.05711
H          4.10767        1.33966       -0.42625
H          4.52428        5.00582       -0.21717
H          5.46455        3.84580        0.72386
H          5.12453        3.53686       -0.98049
