87
-129.18482720
P         -1.47562       -0.40021       -0.29879
P          1.77031        0.40363        0.13152
C         -1.14648        0.80374       -1.59217
C          1.65240       -0.75627       -1.25216
C         -0.07364        0.61412       -2.45481
C          0.16833        1.57377       -3.45808
C         -0.67519        2.66744       -3.56314
C         -1.73617        2.83464       -2.69835
C         -1.96842        1.89746       -1.71126
C          2.41543       -1.89390       -1.13409
C          2.33515       -2.89528       -2.08147
C          1.47282       -2.75652       -3.14638
C          0.68622       -1.62626       -3.28413
C          0.78019       -0.59675       -2.32756
Cl         1.15291        0.22429        3.33008
Cl        -1.40812       -1.59284        2.69226
H         -2.37919        3.69467       -2.78912
H         -2.79780        2.01726       -1.03418
H          3.07557       -2.00398       -0.28936
H          2.93654       -3.78405       -1.98220
H         -0.48722        3.39860       -4.33099
H          1.39795       -3.53778       -3.88375
C         -2.16465       -4.50397       -2.11442
C         -2.74596       -3.38856       -2.70157
C         -2.53453       -2.14509       -2.11612
C         -1.75372       -2.02985       -0.98978
C         -1.18627       -3.14025       -0.41082
C         -1.38974       -4.38398       -0.97754
H         -2.32855       -5.47237       -2.55560
C         -3.60014       -3.52448       -3.91264
H         -2.97443       -1.26155       -2.54913
H         -0.60024       -3.03133        0.48716
H         -0.94691       -5.25845       -0.52975
C         -5.10446        0.92205        2.11767
C         -5.15286       -0.25477        1.39652
C         -4.05497       -0.65812        0.66020
C         -2.92094        0.11913        0.64666
C         -2.87000        1.29040        1.36627
C         -3.96007        1.70766        2.11919
H         -5.95932        1.23900        2.69039
H         -6.04415       -0.86044        1.40983
H         -4.07515       -1.57843        0.09971
H         -1.97768        1.89174        1.34207
C         -3.90170        2.98482        2.88091
C          5.75908       -0.06733        2.27558
C          5.55419        0.99874        1.42221
C          4.34079        1.14089        0.77541
C          3.34177        0.21955        0.98802
C          3.54531       -0.84462        1.83609
C          4.76047       -1.00715        2.49015
H          6.69982       -0.17503        2.78812
H          6.33731        1.72184        1.26311
H          4.16539        1.97106        0.11083
H          2.74788       -1.54800        2.01081
C          4.95962       -2.13781        3.43703
C          0.84393        4.76144       -0.75947
C          1.74034        4.08035       -1.55993
C          2.04072        2.75817       -1.29006
C          1.44016        2.13119       -0.22424
C          0.57478        2.81745        0.59664
C          0.25611        4.14429        0.33623
H          0.59459        5.78543       -0.97970
H          2.19478        4.57393       -2.40326
H          2.72294        2.20512       -1.91580
H          0.16613        2.32747        1.46371
C         -0.72854        4.86625        1.18677
Pd         0.04052       -0.38069        1.47660
C          1.31156        1.44128       -4.40325
C         -0.23965       -1.52948       -4.44723
H          0.96263        1.16362       -5.39862
H          1.85528        2.38311       -4.48994
H          2.02034        0.68227       -4.07032
H         -1.00056       -0.76416       -4.29164
H          0.30583       -1.28322       -5.35896
H         -0.75592       -2.47616       -4.61194
H         -3.66442       -2.58200       -4.45848
H         -3.19740       -4.27510       -4.59430
H         -4.61293       -3.82465       -3.64031
H         -4.64660        3.00525        3.67754
H         -2.92168        3.11952        3.34108
H         -4.08634        3.83652        2.22468
H          4.45423       -3.03786        3.08384
H          6.01794       -2.37539        3.55348
H          4.55850       -1.89150        4.42111
H         -0.51279        5.93506        1.21935
H         -1.74036        4.73771        0.79945
H         -0.71042        4.49294        2.21171
