111
-148.55769168
P         -2.60623        1.93816        1.02446
P          0.14536        0.48007        0.48189
C         -1.48673        1.59151        2.40756
C         -0.26568        1.00315        2.15802
C         -3.49490        3.54688        1.24042
C         -2.92527        4.61906        0.33738
C         -1.84911        1.90225        3.70259
H         -2.81302        2.34397        3.89512
C         -0.97989        1.62926        4.74487
H         -1.26191        1.87131        5.75656
C          0.24630        1.04481        4.49108
H          0.92144        0.82995        5.30298
C          0.60274        0.72612        3.19307
H          1.54811        0.25291        2.97869
Pd        -1.35434        1.60659       -0.88127
Cl        -3.05779        2.38640       -2.11209
Cl         0.00266        1.19686       -2.62488
C         -4.95898        3.16908        0.94779
C         -4.04334        0.77731        0.91433
H         -1.86558        4.78897        0.54246
H         -3.01320        4.33023       -0.71087
H         -3.45216        5.56790        0.46251
H         -5.16381        3.35248       -0.11604
H         -5.64417        3.83079        1.49929
H         -4.10340        0.46834       -0.13797
C         -5.24106        1.67514        1.27752
C         -3.85775       -0.42313        1.81679
H         -3.37758        3.82925        2.29431
H         -5.44863        1.57025        2.35133
H         -6.15056        1.32516        0.76594
H         -3.72829       -0.11136        2.85483
H         -4.72043       -1.09207        1.77507
H         -2.97285       -0.99641        1.53369
C         -1.19064       -3.83025       -0.14090
C         -0.99289       -3.34126        1.17599
C         -0.57007       -2.03232        1.33380
C         -0.40753       -1.20812        0.25188
C         -0.68480       -1.64881       -1.01406
C         -1.12473       -2.94012       -1.24319
O         -1.41722       -5.21555       -0.35707
C         -1.19666       -4.21726        2.42174
H         -0.35422       -1.63764        2.31081
H         -0.54227       -0.95975       -1.82814
C         -1.50348       -3.35087       -2.67432
C          4.57251        0.68844       -0.54741
C          4.03403       -0.47923        0.05117
C          2.67997       -0.50080        0.33998
C          1.89234        0.59997        0.12511
C          2.42864        1.76748       -0.34948
C          3.77501        1.85611       -0.66448
O          5.89546        0.67557       -1.06411
C          4.87813       -1.72780        0.35126
H          2.21309       -1.39249        0.72203
H          1.77078        2.60705       -0.49405
C          4.33569        3.19362       -1.17241
C          0.11578       -4.94574        2.74869
C         -1.59710       -3.35494        3.64079
C         -2.32991       -5.23559        2.20161
C         -0.25295       -3.86561       -3.40275
C         -2.60097       -4.43017       -2.67132
C         -2.06692       -2.13952       -3.45375
C         -0.23114       -5.96729       -0.58201
H          0.42648       -5.58607        1.92673
H          0.91749       -4.23086        2.93310
H          0.00656       -5.56759        3.63686
H         -2.46136       -2.73304        3.41003
H         -1.85764       -3.98531        4.49069
H         -0.78316       -2.70686        3.96239
H         -2.08454       -5.93650        1.40753
H         -2.51780       -5.81449        3.10551
H         -3.25351       -4.72774        1.92566
H          0.51662       -3.09473       -3.43729
H          0.16917       -4.73145       -2.89808
H         -0.48848       -4.15382       -4.42687
H         -3.47573       -4.08556       -2.12081
H         -2.91327       -4.67439       -3.68634
H         -2.25415       -5.34834       -2.20414
H         -2.87666       -1.66477       -2.90020
H         -1.30071       -1.39039       -3.64695
H         -2.46007       -2.45044       -4.42125
H         -0.26992       -6.42743       -1.56915
H          0.64654       -5.32303       -0.51532
H         -0.15659       -6.76149        0.16070
C          5.98229        0.25898       -2.42122
C          4.31154       -2.48770        1.57295
C          4.84677       -2.66609       -0.86488
C          6.33006       -1.34804        0.69377
C          4.19223        3.25372       -2.70088
C          3.55833        4.38003       -0.55824
C          5.81093        3.36889       -0.76866
H          4.19719       -1.81948        2.42613
H          3.34326       -2.93673        1.35630
H          4.97909       -3.29672        1.86874
H          5.25717       -2.18181       -1.74764
H          5.42630       -3.56943       -0.67625
H          3.82382       -2.96306       -1.09566
H          6.91138       -2.22826        0.96718
H          6.82666       -0.87544       -0.14985
H          6.35684       -0.65044        1.53021
H          3.14705        3.15429       -2.99311
H          4.56424        4.20046       -3.09155
H          4.74651        2.45095       -3.18092
H          2.53513        4.42650       -0.92795
H          3.52860        4.30302        0.52832
H          4.03313        5.32709       -0.81371
H          5.92568        3.28406        0.31143
H          6.18760        4.34466       -1.07441
H          6.44195        2.61408       -1.23093
H          4.99039        0.02893       -2.81235
H          6.43421        1.05051       -3.01876
H          6.61577       -0.62491       -2.49328
