111
-148.55103743
P         -2.12569        2.63459        0.23780
P         -0.36018        0.00001        0.47470
C         -1.80211        1.90519        1.86358
C         -1.03713        0.76396        1.96252
C         -1.71888        4.44018        0.28425
C         -0.76692        4.81671       -0.82986
C         -2.26732        2.52443        3.00611
H         -2.84290        3.43184        2.92295
C         -1.97212        1.99123        4.24884
H         -2.33787        2.47259        5.14110
C         -1.19607        0.85264        4.34651
H         -0.95376        0.44454        5.31396
C         -0.71804        0.24398        3.19997
H         -0.07899       -0.62312        3.26252
Pd        -1.04036        1.31722       -1.31641
Cl        -1.92695        2.63143       -2.90485
Cl         0.20863        0.06345       -2.69760
C         -3.10288        5.11314        0.17851
C         -3.91794        2.71373       -0.22130
H         -0.48896        5.87226       -0.78211
H          0.14829        4.22255       -0.78931
H         -1.22731        4.64158       -1.80335
H         -3.00251        6.07857       -0.33861
H         -3.48073        5.35396        1.18299
H         -4.03004        2.09134       -1.11996
C         -4.13019        4.20503       -0.55367
C         -4.80640        2.19445        0.88876
H         -1.25700        4.63104        1.26268
H         -5.15878        4.49642       -0.29591
H         -4.04147        4.36033       -1.63901
H         -5.85821        2.19560        0.59315
H         -4.53498        1.17412        1.16995
H         -4.71738        2.81757        1.77967
C         -1.12110       -4.49101        0.16013
C         -0.57822       -3.77884       -0.93846
C         -0.37843       -2.41726       -0.79757
C         -0.74475       -1.75134        0.34303
C         -1.38164       -2.41914        1.35764
C         -1.61994       -3.78137        1.28224
O         -1.13319       -5.91127        0.15338
C         -0.17555       -4.45956       -2.25618
H          0.06787       -1.84549       -1.59089
H         -1.69120       -1.86067        2.22178
C         -2.37597       -4.47512        2.42641
C          4.08124        0.94249        0.19954
C          3.65792       -0.40902        0.11380
C          2.30260       -0.67717        0.19589
C          1.39765        0.32474        0.42498
C          1.80914        1.61826        0.61514
C          3.15071        1.95601        0.54654
O          5.42597        1.28845       -0.09903
C          4.63076       -1.57679       -0.11240
H          1.93304       -1.67826        0.06509
H          1.05780        2.36543        0.80672
C          3.57051        3.41002        0.81185
C          1.29761       -4.88833       -2.17662
C         -1.06957       -5.67818       -2.54830
C         -0.34054       -3.48558       -3.44549
C         -3.37526       -3.50107        3.09133
C         -3.19439       -5.67008        1.90424
C         -1.37101       -4.94594        3.48848
C          0.04511       -6.50215        0.68722
H          1.94155       -4.02357       -2.01976
H          1.46419       -5.57871       -1.35312
H          1.61182       -5.37916       -3.09734
H         -0.82549       -6.12104       -3.51358
H         -0.94838       -6.45014       -1.79265
H         -2.11965       -5.38826       -2.56383
H         -0.18354       -4.00096       -4.39265
H         -1.34206       -3.05669       -3.45949
H          0.37988       -2.67019       -3.40339
H         -4.02864       -3.04768        2.34636
H         -4.00283       -4.02383        3.81278
H         -2.86472       -2.70474        3.63097
H         -2.54968       -6.44254        1.49229
H         -3.78119       -6.12251        2.70327
H         -3.87902       -5.35220        1.11862
H         -1.88087       -5.43075        4.32064
H         -0.66015       -5.65514        3.07141
H         -0.80506       -4.10279        3.88403
H          0.73530       -5.73112        1.03214
H         -0.21882       -7.15330        1.52045
H          0.53041       -7.10813       -0.07762
C          5.65662        1.57723       -1.47233
C          6.00686       -1.28736        0.51380
C          4.09795       -2.86650        0.55384
C          4.77461       -1.82769       -1.62133
C          3.56807        4.19137       -0.51081
C          2.58633        4.09290        1.78924
C          4.96479        3.47177        1.46142
H          5.90590       -1.06641        1.57585
H          6.67369       -2.14259        0.40695
H          6.48788       -0.43502        0.04107
H          3.19975       -3.23599        0.06187
H          4.83987       -3.66308        0.50269
H          3.86588       -2.69219        1.60414
H          5.16838       -0.95143       -2.13077
H          5.44716       -2.66248       -1.81673
H          3.80766       -2.06086       -2.06656
H          4.27968        3.77239       -1.21775
H          2.58352        4.16010       -0.97599
H          3.83201        5.23596       -0.34781
H          2.46493        3.49945        2.69507
H          2.95119        5.07757        2.08056
H          1.60512        4.23679        1.33983
H          5.72946        3.07696        0.79693
H          4.98621        2.88674        2.38025
H          5.23822        4.49792        1.70578
H          6.37145        0.86455       -1.88301
H          4.72339        1.52060       -2.03427
H          6.08026        2.57684       -1.56837
