171
-217.84573651
P         -1.58267        0.40306       -0.30612
P          1.57550       -0.41533       -0.30339
C         -0.85010        1.35382       -1.64247
C          0.84578       -1.37660       -1.63414
C         -0.08644        0.72400       -2.61860
C          0.53853        1.51354       -3.60309
C          0.35326        2.88613       -3.58855
C         -0.42444        3.48897       -2.62256
C         -1.02034        2.71665       -1.64536
C          1.02027       -2.73887       -1.62862
C          0.42390       -3.51935       -2.59909
C         -0.35897       -2.92525       -3.56638
C         -0.54844       -1.55334       -3.58938
C          0.07810       -0.75543       -2.61273
Cl         1.63190        0.39947        2.87506
Cl        -1.59881       -0.28469        2.92449
C         -1.40311       -0.95069       -4.64898
C          1.38708        0.90164       -4.66230
H         -0.56586        4.55732       -2.62780
H         -1.62329        3.17984       -0.88151
H          1.62645       -3.19502       -0.86307
H          0.56797       -4.58735       -2.59729
H          0.83040        3.48491       -4.34601
H         -0.83692       -3.53045       -4.31820
C         -3.87274       -3.26331       -1.63061
C         -2.88712       -3.40235       -0.66211
C         -2.18880       -2.26419       -0.27966
C         -2.45612       -1.05486       -0.87094
C         -3.42234       -0.93617       -1.84002
C         -4.15936       -2.04648       -2.23628
H         -4.45014       -4.12633       -1.90634
H         -1.43886       -2.30765        0.49076
H         -3.60450        0.03403       -2.27018
C         -4.39749        2.91026        2.22390
C         -4.92084        1.88329        1.44884
C         -4.03860        1.14048        0.67538
C         -2.69719        1.43224        0.66674
C         -2.19929        2.45696        1.43285
C         -3.04015        3.20828        2.24357
H         -5.07047        3.48208        2.83449
H         -4.39145        0.31605        0.08255
H         -1.14172        2.65747        1.41284
C          4.40612       -2.88689        2.24495
C          3.05085       -3.19414        2.26690
C          2.20467       -2.45465        1.45095
C          2.69557       -1.43298        0.67613
C          4.03502       -1.13237        0.68204
C          4.92234       -1.86263        1.46157
H          5.08306       -3.44918        2.86000
H          1.14882       -2.66419        1.43193
H          4.38215       -0.31043        0.08240
C          3.86152        3.24859       -1.64117
C          2.88518        3.38703       -0.66331
C          2.18685        2.24966       -0.27856
C          2.44577        1.04155       -0.87576
C          3.40487        0.92275       -1.85198
C          4.14143        2.03235       -2.25115
H          4.43708        4.11158       -1.92091
H          1.44605        2.29151        0.50075
H          3.58235       -0.04707       -2.28489
Pd         0.00041       -0.01533        1.37780
C         -2.38025       -5.82277       -1.11069
C         -2.63262       -4.76990       -0.01494
C         -3.86376       -5.16916        0.81695
C         -1.40155       -4.73152        0.90978
H         -1.53832       -5.53116       -1.73730
H         -2.15339       -6.79441       -0.67220
H         -3.24993       -5.94561       -1.75468
H         -4.06117       -4.42776        1.59105
H         -4.75298       -5.24446        0.19183
H         -3.71150       -6.13300        1.30233
H         -1.19867       -5.71752        1.32747
H         -0.51731       -4.41218        0.35925
H         -1.55725       -4.04762        1.74362
C         -6.63648       -2.23964       -2.53159
C         -5.30676       -1.95235       -3.25246
C         -5.09854       -2.98769       -4.37445
C         -5.38689       -0.55124       -3.88940
H         -6.80074       -1.52481       -1.72617
H         -7.47772       -2.17067       -3.22104
H         -6.64064       -3.23853       -2.09655
H         -4.14548       -2.83121       -4.87726
H         -5.10698       -4.00479       -3.98502
H         -5.88824       -2.91427       -5.12202
H         -4.45592       -0.29524       -4.39414
H         -6.18690       -0.50759       -4.62831
H         -5.59299        0.21107       -3.13839
C         -6.81683        1.15049        2.91242
C         -6.42534        1.58009        1.48717
C         -6.79999        0.44596        0.51251
C         -7.21298        2.84165        1.08758
H         -7.87824        0.91002        2.97040
H         -6.25284        0.26871        3.21599
H         -6.61316        1.94150        3.63328
H         -7.87243        0.25307        0.53624
H         -6.53370        0.70814       -0.51127
H         -6.29335       -0.48242        0.77576
H         -8.28508        2.64568        1.08029
H         -7.03022        3.66122        1.78141
H         -6.92425        3.17544        0.09106
C         -2.07015        5.51145        2.19438
C         -2.45694        4.33573        3.10700
C         -1.21100        3.82286        3.85769
C         -3.47291        4.83274        4.15416
H         -1.61992        6.32162        2.76769
H         -1.35663        5.19710        1.43477
H         -2.94714        5.90550        1.68114
H         -1.45717        2.94604        4.45618
H         -0.41361        3.54388        3.17130
H         -0.81554        4.58795        4.52538
H         -3.02396        5.58663        4.80077
H         -4.34139        5.28779        3.67879
H         -3.81375        4.01256        4.78584
C          2.08217       -5.49829        2.23352
C          2.47466       -4.31873        3.13875
C          1.23333       -3.80374        3.89548
C          3.49815       -4.81116        4.18068
H          1.63879       -6.30746        2.81354
H          1.36096       -5.18783        1.47957
H          2.95530       -5.89226        1.71368
H          1.48309       -2.92528        4.49008
H          0.43182       -3.52677        3.21294
H          0.84199       -4.56700        4.56770
H          3.05492       -5.56468        4.83165
H          4.36470       -5.26513        3.70075
H          3.84098       -3.98895        4.80863
C          6.79055       -0.41780        0.51505
C          6.42467       -1.54862        1.49690
C          7.22070       -2.80710        1.10438
C          6.81427       -1.10751        2.91916
H          6.27700        0.50839        0.77263
H          7.86152       -0.21675        0.53720
H          6.52596       -0.68835       -0.50699
H          8.29143       -2.60384        1.09522
H          7.04389       -3.62370        1.80323
H          6.93363       -3.14882        0.11006
H          7.87392       -0.85880        2.97464
H          6.24402       -0.22811        3.21791
H          6.61721       -1.89562        3.64501
C          3.88905        5.15881        0.79233
C          2.64032        4.75331       -0.01002
C          1.43248        4.70871        0.94430
C          2.35680        5.80413       -1.09984
H          3.74306        6.12134        1.28221
H          4.10915        4.41787        1.56073
H          4.76267        5.23993        0.14635
H          1.61135        4.02321        1.77221
H          1.23597        5.69297        1.36906
H          0.53654        4.38706        0.41450
H          2.14054        6.77614       -0.65683
H          3.20853        5.92657       -1.76750
H          1.49854        5.51033       -1.70280
C          5.06223        2.97050       -4.39816
C          5.28175        1.93852       -3.27529
C          5.36184        0.53582       -3.90869
C          6.61599        2.23146       -2.56494
H          4.10551        2.81077       -4.89290
H          5.07132        3.98851       -4.01110
H          5.84614        2.89711       -5.15181
H          5.57304       -0.22383       -3.15637
H          4.42925        0.27614       -4.40843
H          6.15851        0.49180       -4.65116
H          6.62054        3.23126       -2.13204
H          6.78848        1.51881       -1.75929
H          7.45224        2.16357       -3.26053
H         -2.29875       -1.54992       -4.81152
H          2.28660        1.49404       -4.82814
H         -0.86581       -0.89101       -5.59639
H         -1.72567        0.05545       -4.37782
H          0.84774        0.84323       -5.60863
H          1.70293       -0.10603       -4.38901
