111
-148.55753871
P         -2.66225        2.03080        0.64773
P          0.08986        0.45831        0.46589
C         -1.75068        1.62488        2.16273
C         -0.52808        0.99486        2.07279
C         -3.53065        3.65953        0.79200
C         -2.80545        4.75230        0.03750
C         -2.27263        1.93801        3.40167
H         -3.23863        2.41058        3.46982
C         -1.56107        1.62789        4.54790
H         -1.96811        1.87272        5.51538
C         -0.33197        1.00378        4.45407
H          0.22088        0.76054        5.34646
C          0.18391        0.68152        3.21181
H          1.13317        0.17720        3.12083
Pd        -1.18121        1.62715       -1.07853
Cl        -2.66039        2.64379       -2.42267
Cl         0.34556        1.11556       -2.64261
C         -4.94241        3.33681        0.26899
C         -4.10261        0.91676        0.31590
H         -3.32102        5.71099        0.13005
H         -1.78462        4.87833        0.40594
H         -2.74230        4.51549       -1.02507
H         -4.97507        3.54718       -0.80897
H         -5.68454        4.00985        0.72485
H         -4.02004        0.61979       -0.73831
C         -5.31447        1.84644        0.51649
C         -4.07995       -0.29702        1.21926
H         -3.56953        3.89688        1.86259
H         -5.68462        1.72782        1.54412
H         -6.14641        1.53648       -0.13396
H         -4.09460        0.00098        2.26929
H         -4.94389       -0.94227        1.04397
H         -3.17735       -0.89048        1.05980
C         -1.23621       -3.83552       -0.29857
C         -1.04544       -2.94598       -1.38920
C         -0.61406       -1.66046       -1.11480
C         -0.46776       -1.21945        0.17291
C         -0.77135       -2.03539        1.23077
C         -1.19480       -3.33856        1.03135
O         -1.38380       -5.22644       -0.53491
C         -1.31333       -3.31152       -2.85856
H         -0.37396       -0.98076       -1.91410
H         -0.66516       -1.64409        2.22764
C         -1.59458       -4.15981        2.26851
C          4.62342        0.54619        0.08796
C          3.97276       -0.60189        0.60774
C          2.59086       -0.58748        0.69317
C          1.87187        0.52959        0.35649
C          2.50166        1.67829       -0.04312
C          3.88165        1.73095       -0.15578
O          6.00854        0.49731       -0.22262
C          4.73108       -1.86658        1.04031
H          2.05012       -1.46277        1.01014
H          1.89390        2.53235       -0.28755
C          4.54589        3.04942       -0.58225
C         -2.14072       -2.18638       -3.52060
C          0.02459       -3.45601       -3.60223
C         -2.12510       -4.61058       -2.99944
C         -0.32888       -4.54411        3.05279
C         -2.51440       -3.31247        3.17576
C         -2.37798       -5.43159        1.89998
C         -0.14128       -5.90740       -0.59084
H         -3.05877       -2.00478       -2.96243
H         -1.58683       -1.25039       -3.56941
H         -2.41450       -2.45399       -4.54071
H          0.60056       -2.53259       -3.54992
H          0.63086       -4.25034       -3.17103
H         -0.13802       -3.69066       -4.65381
H         -3.04762       -4.55142       -2.42293
H         -2.38571       -4.80014       -4.04044
H         -1.56187       -5.46844       -2.63980
H         -0.58236       -5.11210        3.94752
H          0.33923       -5.15317        2.44671
H          0.22150       -3.65641        3.36337
H         -2.85828       -3.89427        4.03056
H         -2.00377       -2.43406        3.56679
H         -3.39234       -2.97582        2.62550
H         -3.24027       -5.18575        1.28117
H         -1.75706       -6.13007        1.34412
H         -2.73457       -5.94587        2.79213
H          0.47496       -5.49648       -1.38884
H          0.38891       -5.79605        0.35367
H         -0.31958       -6.96588       -0.78153
C          6.28991        0.06359       -1.54755
C          6.12306       -1.51653        1.59660
C          3.96791       -2.60144        2.16671
C          4.86158       -2.81602       -0.16045
C          3.71308        4.26060       -0.10419
C          5.94562        3.19498        0.04203
C          4.64004        3.09549       -2.11500
H          6.75308       -1.06432        0.83485
H          6.03958       -0.81092        2.42251
H          6.63474       -2.40686        1.96126
H          3.03286       -3.03003        1.80871
H          4.56314       -3.42291        2.56485
H          3.74224       -1.92274        2.98886
H          3.87846       -3.09296       -0.54072
H          5.41113       -2.34964       -0.97449
H          5.38521       -3.72981        0.11930
H          4.24431        5.19341       -0.29204
H          2.75982        4.32599       -0.62651
H          3.51590        4.19746        0.96566
H          6.62153        2.42116       -0.31291
H          6.38824        4.15869       -0.20863
H          5.89127        3.11859        1.12747
H          5.23980        2.27363       -2.49825
H          5.09258        4.02804       -2.45101
H          3.64974        3.01904       -2.56345
H          6.90490       -0.83559       -1.51579
H          5.36349       -0.14750       -2.08322
H          6.84697        0.83757       -2.07526
