111
-148.55113856
P         -2.63314        2.03350        0.40504
P          0.06591        0.40468        0.51454
C         -1.85869        1.68574        2.00993
C         -0.64537        1.03355        2.04402
C         -3.51625        3.66196        0.43322
C         -2.70063        4.77953       -0.17900
C         -2.46469        2.06601        3.19090
H         -3.42446        2.55458        3.16637
C         -1.84554        1.80101        4.40041
H         -2.31865        2.09827        5.32208
C         -0.62465        1.15467        4.42909
H         -0.14469        0.94592        5.37101
C         -0.02455        0.76403        3.24568
H          0.91749        0.23803        3.24864
Pd        -1.05147        1.48561       -1.20069
Cl        -2.10401        2.85134       -2.62799
Cl         0.56783        0.80267       -2.60287
C         -4.83305        3.33524       -0.29285
C         -4.04263        0.90946       -0.02525
H         -3.23107        5.73322       -0.13028
H         -1.74274        4.89703        0.33289
H         -2.48771        4.57879       -1.22861
H         -4.69359        3.50507       -1.36952
H         -5.62707        4.03158        0.01766
H         -3.83281        0.53257       -1.03529
C         -5.25737        1.85805       -0.04976
C         -4.15490       -0.23283        0.96107
H         -3.71965        3.88110        1.48886
H         -5.78256        1.78373        0.91226
H         -5.98455        1.52960       -0.80761
H         -5.00125       -0.88255        0.72631
H         -3.25060       -0.84469        0.96201
H         -4.29587        0.14420        1.97574
C         -1.36186       -3.87776       -0.10878
C         -0.77079       -3.16308       -1.18161
C         -0.36569       -1.86027       -0.95339
C         -0.45910       -1.29452        0.28962
C         -0.92265       -2.01968        1.35569
C         -1.34938       -3.32743        1.19854
O         -2.00182       -5.12243       -0.35010
C         -0.59726       -3.75930       -2.58654
H          0.01735       -1.25239       -1.75379
H         -0.96181       -1.54185        2.31837
C         -1.82157       -4.11233        2.43211
C          4.59580        0.67926        0.20341
C          3.98389       -0.54904        0.56202
C          2.60229       -0.59235        0.64271
C          1.84665        0.53510        0.45436
C          2.43756        1.74734        0.21485
C          3.81520        1.86106        0.11919
O          5.98054        0.71818       -0.10996
C          4.78388       -1.83567        0.81835
H          2.09142       -1.51998        0.83530
H          1.80123        2.60546        0.08172
C          4.43488        3.24666       -0.12013
C         -0.38463       -5.28249       -2.52292
C         -1.83683       -3.43058       -3.43226
C          0.64786       -3.15950       -3.27987
C         -1.07288       -3.63818        3.69873
C         -3.32644       -3.88119        2.63729
C         -1.53162       -5.61623        2.27640
C         -3.37936       -5.00701       -0.68426
H          0.46790       -5.52446       -1.88916
H         -1.25647       -5.78844       -2.11596
H         -0.19807       -5.69393       -3.51458
H         -2.73796       -3.84865       -2.98974
H         -1.97515       -2.35229       -3.50920
H         -1.73914       -3.83129       -4.44082
H          1.52914       -3.25822       -2.64659
H          0.85167       -3.67145       -4.21997
H          0.51139       -2.10491       -3.51413
H         -1.30730       -4.27833        4.54894
H          0.00562       -3.66732        3.54512
H         -1.35286       -2.62317        3.97696
H         -3.68962       -4.42553        3.50862
H         -3.53675       -2.82285        2.78954
H         -3.89762       -4.21113        1.77283
H         -2.09154       -6.04458        1.44881
H         -0.47225       -5.78490        2.08586
H         -1.80577       -6.16379        3.17780
H         -3.68739       -3.96064       -0.67358
H         -3.55238       -5.42614       -1.67529
H         -3.97747       -5.56936        0.03263
C          6.26938        0.47917       -1.48189
C          4.93287       -2.61066       -0.49986
C          6.16928       -1.52120        1.41115
C          4.05218       -2.73742        1.83921
C          5.82989        3.35108        0.52264
C          4.52566        3.50617       -1.63165
C          3.56275        4.35203        0.51764
H          5.48618       -3.53705       -0.34804
H          3.95539       -2.86428       -0.90973
H          5.46091       -2.02199       -1.24613
H          6.07152       -0.93621        2.32504
H          6.71020       -2.43647        1.65027
H          6.77949       -0.95150        0.71496
H          4.67528       -3.58546        2.12237
H          3.81204       -2.18143        2.74513
H          3.12795       -3.14343        1.43055
H          6.53013        2.65510        0.06770
H          6.24062        4.35378        0.40695
H          5.77945        3.12579        1.58737
H          5.15501        2.76730       -2.12159
H          3.53848        3.45583       -2.09053
H          4.94331        4.49194       -1.83460
H          4.06276        5.31880        0.46303
H          3.36827        4.13476        1.56760
H          2.60747        4.45779        0.00571
H          5.34688        0.32304       -2.04267
H          6.80725        1.33176       -1.89617
H          6.90487       -0.40131       -1.57481
