64
-97.21609418
Cl        -1.62628       -1.28197       -2.53483
Cl         1.53902       -1.26590       -2.97312
P          1.94012       -0.66688        0.25753
C          2.11955       -2.34242        1.02479
C          3.72795       -0.28536       -0.07021
P         -1.28206       -0.12458        0.44087
C          1.28193        0.57066        1.43099
C         -0.14079        0.83786        1.50429
C         -0.34467        1.95150        2.41882
C          0.95944        2.39340        2.88006
C          1.96590        1.54077        2.27159
H         -1.30771        2.35520        2.73679
H          1.14880        3.20595        3.58536
Pd         0.16850       -0.91121       -1.23953
H          3.04585        1.60793        2.41969
C         -5.03393        2.13167       -0.85612
C         -4.04907        2.80054       -0.15753
C         -2.90888        2.12751        0.23990
C         -2.74944        0.79431       -0.06496
C         -3.73457        0.12600       -0.75597
C         -4.87885        0.79307       -1.15522
H         -5.92348        2.65433       -1.16805
H         -4.16748        3.84563        0.07754
H         -2.13686        2.64437        0.78129
H         -3.60115       -0.91789       -0.98941
H         -5.64519        0.26818       -1.70162
C         -2.60136       -3.94168        2.51808
C         -2.37429       -2.79775        3.25881
C         -1.98106       -1.63266        2.62451
C         -1.81628       -1.62440        1.25885
C         -2.04813       -2.75839        0.51581
C         -2.44105       -3.92417        1.14617
H         -2.90728       -4.84968        3.01173
H         -2.50138       -2.81194        4.32883
H         -1.79394       -0.73117        3.18633
H         -1.92977       -2.71882       -0.55518
H         -2.62299       -4.81488        0.56754
C          4.07512       -0.36552       -1.54073
H          3.91501        0.72573        0.31444
C          4.46034       -1.34635        0.77482
H          4.66124       -0.95077        1.78130
C          3.62383       -2.64858        0.89043
H          5.44612       -1.55547        0.33417
C          1.63548       -2.31681        2.45834
H          1.51598       -3.03700        0.42448
H          3.95608       -3.24844        1.74995
H          3.80158       -3.27588        0.00485
H          1.73546       -3.29520        2.93423
H          2.21330       -1.60001        3.04525
H          0.58740       -2.01836        2.51853
H          3.51404        0.35979       -2.13168
H          5.13843       -0.18333       -1.71122
H          3.84264       -1.35657       -1.93380
Fe         0.86811        2.46119        0.84100
C          2.23366        3.16888       -0.47794
C          1.42619        4.25122        0.06115
C          0.03686        3.99529       -0.27933
C         -0.01312        2.73074       -0.99107
C          1.34022        2.23156       -1.13133
H          3.32262        3.09308       -0.42967
H          1.80428        5.13008        0.58889
H         -0.81367        4.63909       -0.04513
H         -0.90369        2.26957       -1.42284
H          1.62722        1.33777       -1.68796
