105
-153.06455103
Cl         2.39098        3.21239        0.05712
Pd         0.62755        1.96917       -0.58989
P         -1.13634        0.59969       -1.38292
N         -1.53913       -1.06208       -1.04153
C         -0.69449       -2.11502       -1.37899
C         -0.45203       -3.11369       -0.40074
C          0.50568       -4.11299       -0.64057
C          0.85751       -5.06580        0.47446
C          1.63322       -6.30771        0.00790
C          2.76561       -5.91627       -0.94812
C          2.21411       -5.18871       -2.18538
C          1.18253       -4.13611       -1.86400
C          0.91833       -3.15320       -2.81529
C          0.00738       -2.15516       -2.57990
H         -0.16943       -1.38762       -3.31018
H          1.45245       -3.17855       -3.75008
H          3.03387       -4.72235       -2.74678
H          3.47016       -5.25814       -0.42401
H          2.02519       -6.87028        0.86698
H          1.45029       -4.51939        1.21799
C         -1.00687       -2.84928        0.95313
C         -0.41578       -1.77859        1.66726
C         -1.00251       -1.34570        2.84968
C         -2.14383       -1.94852        3.31527
C         -2.75328       -2.99031        2.61922
C         -4.01190       -3.59670        3.18910
C         -4.82249       -4.42461        2.17742
C         -3.90563       -5.32093        1.33720
C         -2.87549       -4.47847        0.56904
C         -2.19151       -3.43928        1.42043
H         -2.12001       -5.12598        0.10786
H         -4.49313       -5.94513        0.64918
H         -5.37356       -3.74751        1.51261
H         -4.63391       -2.79384        3.60518
H         -2.58826       -1.60987        4.23590
H         -0.55155       -0.53614        3.39181
N          0.71136       -1.18212        1.11266
P          1.28034        0.46614        1.08891
C          3.02840        0.30512        0.71552
C          3.99309        0.84305        1.53305
C          5.32817        0.70997        1.19906
C          5.70436        0.04372        0.04042
C          4.71513       -0.49686       -0.76993
C          3.37963       -0.36109       -0.43565
H          2.61080       -0.76999       -1.07297
H          4.99635       -1.02330       -1.66600
C          7.14315       -0.11985       -0.30703
H          6.08829        1.12737        1.83711
H          3.69975        1.37583        2.42259
C          1.03183        1.22970        2.68832
C          1.55805        0.61397        3.79929
C          1.34277        1.15774        5.05314
C          0.59342        2.31710        5.20086
C          0.08128        2.93000        4.06550
C          0.29820        2.38602        2.81318
H         -0.10926        2.85932        1.93466
H         -0.49052        3.83650        4.16795
C          0.37759        2.91533        6.54733
H          1.75455        0.68125        5.92635
H          2.12245       -0.29827        3.68132
H          1.01488       -1.54562        0.22132
H         -1.89449       -1.06865       -0.09675
C         -1.38124        0.87309       -3.13491
C         -2.66165        0.85785       -3.63462
C         -2.87126        1.02158       -4.99243
C         -1.79827        1.18403       -5.85838
C         -0.51279        1.18924       -5.33422
C         -0.30528        1.02616       -3.97679
H          0.69323        1.02769       -3.56823
H          0.32562        1.32590       -5.99565
C         -2.02324        1.38863       -7.31617
H         -3.87259        1.02187       -5.38795
H         -3.49149        0.70767       -2.96158
C         -2.22125        1.59776       -0.35092
C         -2.92532        2.67687       -0.83017
C         -3.68376        3.43810        0.04018
C         -3.74019        3.12551        1.39272
C         -3.00671        2.04375        1.86027
C         -2.24883        1.28466        0.98919
H         -1.64456        0.47038        1.35258
H         -3.02047        1.80825        2.91075
C         -4.52606        3.96870        2.33518
H         -4.23048        4.29028       -0.32585
H         -2.85967        2.93391       -1.87448
Cl         0.22253        3.40744       -2.26921
H          1.76577       -5.91647       -2.87219
H          0.94668       -6.99335       -0.50437
H          3.35032       -6.79961       -1.24154
H         -0.05835       -5.36374        0.99892
H         -3.38071       -6.02320        1.99683
H         -3.36698       -3.96795       -0.26791
H         -3.73699       -4.22614        4.04387
H         -5.58967       -5.02368        2.68810
H          7.28275       -0.18170       -1.38717
H          7.73337        0.72339        0.05437
H          7.54812       -1.02988        0.13768
H          1.16847        3.62780        6.78557
H         -0.57627        3.44257        6.59534
H          0.37055        2.14811        7.32284
H         -1.19612        0.98582       -7.90241
H         -2.93613        0.89188       -7.64770
H         -2.11445        2.45059       -7.54809
H         -4.90937        3.37609        3.16704
H         -3.90730        4.76689        2.74754
H         -5.37972        4.42827        1.83513
