58
-89.87305188
P          1.69540        0.12445        0.85276
C          2.41416        1.69941        0.37077
C          3.67920        1.77497       -0.16460
C          4.18682        2.99985       -0.55744
C          3.42033        4.13997       -0.41562
C          2.14709        4.05832        0.11301
C          1.64156        2.83144        0.50484
H          0.64099        2.74797        0.89999
H          4.25809        0.87486       -0.28922
C          2.82432       -1.25575        0.62336
C          2.47696       -2.32290       -0.17430
C          3.35379       -3.38113       -0.32873
C          4.57239       -3.36599        0.32027
C          4.91510       -2.29720        1.12446
C          4.03577       -1.24000        1.27755
H          4.28954       -0.40040        1.90560
H          1.52517       -2.32604       -0.67968
C          1.21385        0.19825        2.62414
C          0.11914       -0.79920        2.97244
C         -1.27768       -0.28748        2.66138
P         -1.67338       -0.13402        0.86572
C         -2.48682       -1.64668        0.33178
C         -1.76887       -2.82135        0.33692
C         -2.36480       -3.99343       -0.09321
C         -3.67491       -3.97903       -0.52949
C         -4.38864       -2.79689       -0.54001
C         -3.78999       -1.62709       -0.10918
H         -4.33000       -0.69500       -0.12903
H         -0.74113       -2.81533        0.66313
C         -2.73406        1.30513        0.65796
C         -3.88726        1.38673        1.40603
C         -4.71680        2.48654        1.27636
C         -4.38289        3.50046        0.40066
C         -3.22317        3.41766       -0.34393
C         -2.39682        2.31669       -0.21319
H         -1.49398        2.24268       -0.79647
H         -4.13369        0.58969        2.09011
Pd         0.01284       -0.02571       -0.72638
Cl         1.62779        0.18243       -2.27277
Cl        -1.64957       -0.18059       -2.23174
H         -2.04511       -0.94007        3.08527
H         -1.42683        0.69900        3.10529
H          0.30220       -1.74370        2.44300
H          0.17938       -1.05029        4.04311
H          2.12833        0.01072        3.19226
H          0.90133        1.21765        2.85730
H          5.17636        3.06245       -0.97955
H          1.54523        4.94636        0.21495
H          3.08609       -4.21469       -0.95711
H          5.86536       -2.28559        1.63256
H         -1.80484       -4.91414       -0.09256
H         -5.40825       -2.78366       -0.88855
H         -5.62119        2.55103        1.85877
H         -2.96271        4.20779       -1.02893
H          3.81427        5.09460       -0.72418
H          5.25696       -4.18966        0.19906
H         -4.13939       -4.89093       -0.86773
H         -5.02840        4.35750        0.29796
