111
-148.55760475
P         -2.35460        2.48021       -0.00043
P         -0.11266        0.27753        0.48283
C         -1.74470        2.16635        1.67365
C         -0.81159        1.17483        1.88346
C         -2.23963        4.26713       -0.45539
C         -1.15705        4.47884       -1.49154
C         -2.23352        2.89218        2.74062
H         -2.95606        3.67294        2.56568
C         -1.79485        2.61036        4.02299
H         -2.17673        3.17507        4.85778
C         -0.87442        1.60162        4.23424
H         -0.53712        1.37783        5.23290
C         -0.38187        0.88094        3.16089
H          0.33734        0.09031        3.30900
Pd        -1.30595        0.96540       -1.38482
Cl        -2.72744        1.56641       -3.01291
Cl        -0.24838       -0.60891       -2.59208
C         -3.66279        4.59798       -0.94384
C         -4.18340        2.22155       -0.14969
H         -0.18049        4.16249       -1.11625
H         -1.36608        3.89641       -2.39126
H         -1.08485        5.52865       -1.78577
H         -3.69202        4.49503       -2.03733
H         -3.90262        5.65269       -0.74052
H         -4.33078        1.65313       -1.07753
C         -4.72381        3.65434       -0.31016
C         -4.74823        1.46315        1.03308
H         -2.01091        4.81033        0.47085
H         -5.01168        4.03748        0.67844
H         -5.64988        3.64914       -0.90491
H         -4.61497        2.02637        1.95773
H         -5.81790        1.27593        0.91410
H         -4.24694        0.50193        1.16358
C         -0.99967       -4.18190        0.64196
C          0.30566       -3.71811        0.94795
C          0.54953       -2.35642        0.88326
C         -0.45879       -1.47132        0.60664
C         -1.74470       -1.90430        0.41676
C         -2.05585       -3.25350        0.45579
O         -1.24258       -5.57349        0.49268
C          1.45882       -4.66635        1.31319
H          1.54086       -1.96625        1.03461
H         -2.50462       -1.16895        0.21550
C         -3.51443       -3.68907        0.24566
C          4.35894        1.05986       -0.01251
C          3.65925        0.27317       -0.96177
C          2.29735        0.09888       -0.78946
C          1.64474        0.60004        0.30556
C          2.33702        1.27868        1.27500
C          3.70051        1.49501        1.16568
O          5.70584        1.43919       -0.25653
C          4.34331       -0.36755       -2.17952
H          1.71198       -0.41857       -1.52810
H          1.79305        1.64849        2.12493
C          4.43873        2.21104        2.30817
C          2.18310       -5.10631        0.03194
C          2.47928       -3.95675        2.23266
C          0.94186       -5.89591        2.08178
C         -3.76077       -3.92620       -1.25232
C         -3.83358       -4.96305        1.04840
C         -4.49010       -2.59313        0.73174
C         -1.04641       -6.06025       -0.82913
H          2.57345       -4.24231       -0.50454
H          3.01890       -5.76635        0.26268
H          1.51266       -5.63605       -0.63990
H          3.01585       -3.16812        1.70698
H          1.98241       -3.51761        3.09738
H          3.22587       -4.66152        2.59808
H          0.27266       -6.49483        1.46923
H          1.76537       -6.53757        2.39415
H          0.39417       -5.58910        2.97222
H         -4.79398       -4.21902       -1.43692
H         -3.55892       -3.01994       -1.82306
H         -3.11515       -4.70997       -1.64001
H         -3.23836       -5.80664        0.70813
H         -3.62394       -4.81184        2.10677
H         -4.88306       -5.23801        0.94617
H         -5.51802       -2.95464        0.71451
H         -4.25857       -2.29137        1.75294
H         -4.45244       -1.71190        0.09313
H         -0.28160       -6.83662       -0.82352
H         -1.97255       -6.50088       -1.19768
H         -0.73925       -5.24961       -1.49124
C          5.84427        2.66032       -0.97221
C          4.29497        0.61079       -3.36271
C          5.80048       -0.74864       -1.86154
C          3.61778       -1.67027       -2.58781
C          3.74271        1.94273        3.66234
C          5.88491        1.69957        2.43961
C          4.43373        3.72486        2.04751
H          4.81163        1.53857       -3.12907
H          4.76263        0.17799       -4.24664
H          3.26410        0.85964       -3.61376
H          6.26470       -1.25998       -2.70445
H          6.40128        0.12940       -1.63851
H          5.84361       -1.41091       -0.99746
H          4.17183       -2.19454       -3.36603
H          3.52144       -2.34157       -1.73537
H          2.62257       -1.47248       -2.98291
H          3.61418        0.87320        3.82714
H          4.33506        2.33921        4.48669
H          2.76468        2.41883        3.71508
H          5.89836        0.61964        2.58307
H          6.46811        1.92500        1.55027
H          6.38818        2.16106        3.28886
H          4.93752        4.26111        2.85132
H          3.41299        4.10037        1.97884
H          4.93841        3.96629        1.11523
H          4.86460        3.08962       -1.18580
H          6.42962        3.36512       -0.38190
H          6.37342        2.47890       -1.90753
