59
-75.79998378
Cl         1.51020        0.66972        2.35074
P          1.61833       -0.12363       -0.77387
P         -1.59430       -0.21813       -0.84641
C          0.66009        0.34260       -2.28530
H          0.41780        1.40621       -2.21208
H          1.30586        0.21059       -3.15895
C         -0.59327       -0.48469       -2.37417
H         -0.35349       -1.54656       -2.45649
H         -1.20493       -0.22235       -3.24275
C          2.38969       -1.78535       -1.05868
H          1.85942       -2.19999       -1.92593
C          3.16929        0.86861       -0.62781
H          3.46888        0.82014        0.42610
C         -2.87164       -1.50556       -0.46156
H         -2.77037       -1.71524        0.61051
C         -2.68867        1.26212       -1.05399
H         -2.72875        1.46778       -2.13064
C          3.85792       -1.46882       -1.43094
H          4.52509       -1.93226       -0.69386
H          4.12089       -1.95116       -2.38419
C          4.14420        0.05966       -1.50162
H          4.04619        0.40591       -2.54053
H          5.18500        0.27949       -1.21745
C         -4.19789       -0.77393       -0.73735
H         -4.51402       -0.99135       -1.76699
H         -4.99621       -1.17323       -0.09327
C         -4.05416        0.76123       -0.55387
H         -4.15351        1.01171        0.51134
H         -4.87086        1.29615       -1.06216
C          2.22385       -2.70287        0.15278
H          2.58289       -3.70874       -0.10650
H          1.15268       -2.82186        0.36234
C          2.99331        2.32090       -1.05361
H          3.98050        2.80072       -1.10837
H          2.60442        2.34739       -2.07963
C         -2.69646       -2.79134       -1.26254
H         -3.60820       -3.39770       -1.16823
H         -2.62792       -2.53847       -2.32860
C         -2.15070        2.47683       -0.30852
H         -2.08435        2.23626        0.76058
H         -1.11718        2.66453       -0.62812
C          2.92577       -2.21957        1.41399
H          2.70542       -2.85756        2.27301
H          2.61590       -1.20856        1.67440
H          4.01024       -2.20077        1.29998
C          2.08459        3.10497       -0.12012
H          1.95954        4.14172       -0.44051
H          2.48157        3.11884        0.89664
H          1.09274        2.65603       -0.06559
C         -1.48946       -3.60583       -0.82600
H         -1.37596       -4.52020       -1.41283
H         -1.56757       -3.89578        0.22362
H         -0.56821       -3.03404       -0.93029
C         -2.99400        3.72593       -0.51457
H         -2.58480        4.58826        0.01675
H         -3.05527        3.98976       -1.57208
H         -4.01555        3.57808       -0.15991
Cl        -1.70817        0.19321        2.32493
Pd        -0.03963        0.11202        0.82592
