111
-148.55184906
P         -2.74564        1.79599       -0.27870
P          0.19540        0.65055        0.12807
C         -1.78559        2.24218        1.19944
C         -0.48982        1.79373        1.34020
C         -3.95164        3.14475       -0.68708
C         -3.80080        3.63470       -2.11000
C         -2.34935        3.02428        2.18811
H         -3.37000        3.35531        2.09034
C         -1.60918        3.36399        3.30748
H         -2.05018        3.97555        4.07766
C         -0.30838        2.91849        3.44055
H          0.26705        3.18020        4.31324
C          0.25079        2.12488        2.45566
H          1.25768        1.75073        2.55343
Pd        -1.16423        0.91906       -1.73240
Cl        -2.73446        1.01828       -3.32489
Cl         0.45161       -0.03942       -2.96030
C         -5.31687        2.48672       -0.39420
C         -3.90649        0.38199        0.00187
H         -4.47435        4.46853       -2.32139
H         -2.77895        3.96408       -2.31135
H         -4.03665        2.83868       -2.81698
H         -6.07434        2.89359       -1.07990
H         -5.65598        2.76053        0.61569
H         -3.55531       -0.44979       -0.62448
C         -5.25078        0.93740       -0.51064
C         -3.92407       -0.02370        1.45964
H         -3.75086        3.96769        0.01154
H         -6.07753        0.47051        0.04454
H         -5.39650        0.64660       -1.56154
H         -4.24779        0.80886        2.08702
H         -4.60656       -0.85840        1.63649
H         -2.93054       -0.32297        1.79903
C         -1.26651       -3.50141        1.29587
C         -0.95673       -3.21924       -0.05884
C         -0.49959       -1.95246       -0.37365
C         -0.30618       -1.00589        0.59673
C         -0.49555       -1.30898        1.91918
C         -0.92963       -2.56524        2.30745
O         -1.95343       -4.69785        1.63249
C         -1.16653       -4.23728       -1.18938
H         -0.29867       -1.67578       -1.39341
H         -0.31768       -0.53925        2.64975
C         -1.05765       -2.87673        3.80632
C          4.74087        0.87288       -0.03621
C          3.97382        1.53270       -1.03375
C          2.59225        1.47981       -0.94188
C          1.97833        0.73606        0.03109
C          2.71475       -0.00652        0.91739
C          4.09907        0.00652        0.88787
O          6.12944        1.13696        0.08480
C          4.58825        2.27431       -2.23319
H          1.97547        2.01582       -1.64318
H          2.19092       -0.60698        1.64202
C          4.84636       -0.93790        1.84459
C         -2.58972       -4.08317       -1.74762
C         -0.15886       -3.99466       -2.33635
C         -0.94302       -5.67598       -0.69018
C         -2.44471       -2.43943        4.30119
C         -0.84305       -4.37570        4.08372
C          0.01942       -2.11291        4.61055
C         -3.36925       -4.56362        1.64512
H         -3.33651       -4.26534       -0.97843
H         -2.74631       -3.07427       -2.12904
H         -2.76762       -4.78381       -2.56292
H          0.86176       -3.96481       -1.95593
H         -0.21704       -4.79140       -3.07747
H         -0.35791       -3.05957       -2.85773
H          0.04893       -5.78007       -0.25182
H         -1.67280       -5.95078        0.06734
H         -1.03025       -6.39219       -1.50682
H         -2.56570       -2.65372        5.36272
H         -2.58641       -1.36878        4.15594
H         -3.23620       -2.95434        3.76155
H          0.12080       -4.70331        3.69551
H         -0.86671       -4.58384        5.15312
H         -1.61434       -4.98086        3.61411
H          0.01683       -2.42547        5.65453
H          1.01309       -2.30455        4.20613
H         -0.15338       -1.03784        4.59871
H         -3.80933       -5.27106        0.94241
H         -3.75039       -4.78991        2.64072
H         -3.65791       -3.54902        1.36755
C          6.40672        2.23817        0.93350
C          3.85597        1.85036       -3.52618
C          4.42753        3.79035       -2.03590
C          6.07653        1.93660       -2.42924
C          6.32562       -1.11002        1.45849
C          4.74894       -0.39370        3.27926
C          4.19930       -2.34034        1.79116
H          4.32425        2.29692       -4.40287
H          3.88236        0.76760       -3.64498
H          2.81277        2.16121       -3.52256
H          4.83409        4.33869       -2.88529
H          3.37699        4.06056       -1.93372
H          4.94590        4.12732       -1.14018
H          6.67544        2.29741       -1.59632
H          6.21952        0.85899       -2.50124
H          6.46696        2.39349       -3.33827
H          6.41708       -1.42850        0.42066
H          6.87302       -0.17704        1.57028
H          6.81210       -1.85508        2.08759
H          3.70890       -0.30106        3.59094
H          5.25208       -1.05709        3.98228
H          5.20838        0.58977        3.35854
H          3.17727       -2.33107        2.16629
H          4.76022       -3.05031        2.39841
H          4.17897       -2.71521        0.76825
H          6.01758        2.04717        1.93236
H          7.48532        2.38671        0.98901
H          5.93887        3.13953        0.54088
