105
-153.06948253
Cl         0.38970        3.29080        2.30097
Pd        -0.18808        1.81035        0.70779
P         -0.72591        0.46102       -1.16039
N          0.44467       -0.78971       -1.56046
C          0.53219       -2.17634       -1.35453
C          0.00784       -2.84732       -0.21662
C          0.32108       -4.20705       -0.00917
C         -0.01408       -4.86119        1.31042
C         -0.15765       -6.38509        1.20108
C          1.09386       -6.98680        0.55349
C          1.33569       -6.39568       -0.84695
C          1.04196       -4.91817       -0.97273
C          1.51263       -4.24932       -2.09562
C          1.29058       -2.90784       -2.26717
H          1.69462       -2.39603       -3.12356
H          2.07872       -4.79777       -2.82955
H          2.37372       -6.57368       -1.15554
H          1.96332       -6.78175        1.19078
H         -0.35123       -6.83644        2.18446
H          0.78510       -4.61946        2.02154
C         -0.69198       -2.09160        0.85004
C          0.05729       -1.15931        1.60835
C         -0.56317       -0.48964        2.66176
C         -1.88114       -0.72419        2.95780
C         -2.63604       -1.63713        2.22855
C         -4.07236       -1.86124        2.64512
C         -4.87322       -2.84177        1.76634
C         -3.97994       -3.94619        1.19143
C         -2.84231       -3.32326        0.37252
C         -2.03985       -2.32842        1.17101
H         -2.19167       -4.09933       -0.04616
H         -4.56302       -4.65388        0.58526
H         -5.33951       -2.29412        0.93849
H         -4.57796       -0.88783        2.67824
H         -2.34940       -0.19361        3.76946
H          0.00373        0.23067        3.22417
N          1.37685       -0.88926        1.24594
P          1.87876        0.78942        1.10311
C          2.72877        1.04926       -0.45320
C          3.56112        0.07172       -0.94692
C          4.06346        0.18490       -2.23075
C          3.74671        1.28242       -3.01954
C          2.92192        2.26711       -2.49440
C          2.41459        2.15066       -1.21429
H          1.75565        2.90658       -0.81750
H          2.65861        3.11504       -3.10350
C          4.24112        1.37790       -4.42073
H          4.69577       -0.58806       -2.63339
H          3.78608       -0.79279       -0.34230
C          2.82703        1.35215        2.50765
C          2.86974        0.56594        3.63352
C          3.58403        0.98950        4.74009
C          4.25275        2.20658        4.72338
C          4.20559        2.97977        3.57053
C          3.49129        2.55397        2.46503
H          3.44220        3.15592        1.57140
H          4.72962        3.91988        3.54489
C          5.03971        2.65598        5.90507
H          3.62572        0.37615        5.62388
H          2.34971       -0.37870        3.63575
H          1.68617       -1.33739        0.39071
H          1.29806       -0.29019       -1.78313
C         -0.59734        1.65626       -2.49632
C         -0.01901        1.25325       -3.67683
C          0.11837        2.15063       -4.72058
C         -0.32232        3.46014       -4.58634
C         -0.92634        3.84190       -3.39595
C         -1.06262        2.94163       -2.35697
H         -1.53333        3.23326       -1.43357
H         -1.28940        4.84968       -3.28801
C         -0.18810        4.42397       -5.71333
H          0.57389        1.83910       -5.64499
H          0.33009        0.23829       -3.77563
C         -2.36623       -0.24104       -1.32796
C         -2.53651       -1.17281       -2.32517
C         -3.79360       -1.69558       -2.57644
C         -4.88800       -1.28973       -1.82511
C         -4.69935       -0.33588       -0.83362
C         -3.44439        0.18892       -0.59285
H         -3.30660        0.95953        0.14487
H         -5.54378        0.00309       -0.25822
C         -6.23568       -1.86391       -2.09181
H         -3.93029       -2.42783       -3.35369
H         -1.68134       -1.48629       -2.90326
Cl        -2.23200        2.74087        0.62030
H          0.71972       -6.92981       -1.58037
H         -1.03542       -6.62316        0.58728
H          1.01734       -8.08229        0.50677
H         -0.91885       -4.42070        1.74250
H         -3.55577       -4.53645        2.01320
H         -3.26354       -2.80886       -0.49486
H         -4.07064       -2.22123        3.68106
H         -5.70945       -3.27625        2.33180
H          4.32422        2.41790       -4.73946
H          5.22610        0.92024       -4.52273
H          3.56053        0.87007       -5.10566
H          4.61676        2.26531        6.83162
H          6.07296        2.31323        5.83559
H          5.04997        3.74425        5.97993
H         -0.09773        5.44767       -5.34736
H          0.69777        4.20783       -6.31225
H         -1.05829        4.37640       -6.36936
H         -6.20243       -2.95438       -2.08140
H         -6.95963       -1.54687       -1.33993
H         -6.60610       -1.54683       -3.06760
