64
-97.21579837
Cl        -1.59131       -1.30259       -2.50855
Cl         1.65697       -1.27121       -2.88459
P          1.97614       -0.62555        0.26569
C          2.18345       -2.29845        1.03114
C          3.76009       -0.19041       -0.01054
P         -1.30793       -0.15291        0.41216
C          1.25057        0.58610        1.42929
C         -0.18052        0.81460        1.48724
C         -0.41188        1.92871        2.39365
C          0.87380        2.37727        2.89723
C          1.90400        1.54211        2.30804
H         -1.38657        2.31742        2.69463
H          1.03561        3.18545        3.61370
Pd         0.20416       -0.90709       -1.22444
H          2.97905        1.62232        2.47915
C         -5.07180        2.06711       -0.90901
C         -4.08734        2.75160       -0.22508
C         -2.94311        2.08993        0.17982
C         -2.77973        0.75242       -0.10291
C         -3.76412        0.06854       -0.77955
C         -4.91239        0.72426       -1.18617
H         -5.96453        2.58088       -1.22658
H         -4.20932        3.79999       -0.00710
H         -2.17164        2.61856        0.71060
H         -3.62679       -0.97867       -0.99563
H         -5.67842        0.18724       -1.72109
C         -2.59517       -3.98392        2.48436
C         -2.39675       -2.83395        3.22398
C         -2.01344       -1.66487        2.59096
C         -1.83041       -1.65842        1.22755
C         -2.03306       -2.79876        0.48578
C         -2.41583       -3.96860        1.11480
H         -2.89332       -4.89502        2.97705
H         -2.53844       -2.84651        4.29218
H         -1.84803       -0.75874        3.15213
H         -1.89962       -2.76096       -0.58335
H         -2.57490       -4.86420        0.53699
C          4.15357       -0.26576       -1.46956
H          3.90450        0.82752        0.37438
C          4.49806       -1.22480        0.86207
H          4.65188       -0.82049        1.87338
C          3.70136       -2.55360        0.95400
H          5.50445       -1.40232        0.45540
C          1.64142       -2.29969        2.44402
H          1.62813       -3.00875        0.40326
H          4.02145       -3.13821        1.82848
H          3.93290       -3.17862        0.07931
H          2.16935       -1.56714        3.05785
H          0.58167       -2.03896        2.46316
H          1.75674       -3.27722        2.91820
H          3.58735        0.43881       -2.08047
H          5.21520       -0.05064       -1.60935
H          3.96425       -1.26535       -1.86417
Fe         0.79331        2.47447        0.82290
C          1.32648        2.23944       -1.14518
C          2.18849        3.19989       -0.48373
C          1.35073        4.27190        0.02780
C         -0.02659        3.98154       -0.33289
C         -0.03899        2.71366       -1.04042
H          1.64267        1.34537       -1.68525
H          3.27731        3.14570       -0.41324
H          1.70080        5.16217        0.55552
H         -0.89353        4.61180       -0.12286
H         -0.91234        2.22984       -1.48253
