87
-129.18303953
P         -1.51432       -0.23855       -0.38819
P          1.74783        0.31617        0.25326
C         -1.04438        0.97768       -1.62856
C          1.54322       -0.81358       -1.14400
C          0.06595        0.74264       -2.43047
C          0.44384        1.71868       -3.37296
C         -0.32521        2.86429       -3.49885
C         -1.43677        3.06845       -2.70725
C         -1.79164        2.12165       -1.76634
C          2.13358       -2.04189       -0.96210
C          2.02150       -3.02041       -1.93070
C          1.31081       -2.75962       -3.08175
C          0.69409       -1.53603       -3.27939
C          0.80556       -0.53837       -2.29151
Cl         1.09518       -0.41749        3.33748
Cl        -1.53604       -1.97974        2.43246
H         -2.01931        3.96885       -2.81313
H         -2.64944        2.27602       -1.13268
H          2.67923       -2.23494       -0.05031
H          2.48544       -3.98205       -1.78473
H         -0.03755        3.60746       -4.22301
H          1.21937       -3.51831       -3.84047
C         -2.60814       -4.11853       -2.49814
C         -2.01546       -4.17700       -1.24457
C         -1.71705       -2.98524       -0.59727
C         -1.97281       -1.77576       -1.19903
C         -2.55933       -1.72752       -2.44248
C         -2.88292       -2.90343       -3.09367
H         -2.85811       -5.03588       -3.00337
C         -1.74549       -5.48188       -0.58234
H         -1.30566       -3.00690        0.39630
H         -2.74702       -0.77114       -2.90454
H         -3.34297       -2.87058       -4.06769
C         -5.23251        1.40642        1.69092
C         -5.32441        0.79597        0.45644
C         -4.18891        0.29068       -0.14885
C         -2.96982        0.39382        0.48117
C         -2.88073        1.00036        1.71418
C         -4.00869        1.52195        2.33399
H         -6.11566        1.79483        2.16897
H         -6.27982        0.71146       -0.03498
H         -4.24923       -0.18668       -1.11341
H         -1.93553        1.05849        2.22275
C         -3.90596        2.14824        3.68016
C          6.14840        0.15571        1.42050
C          5.77833        0.25264        0.09365
C          4.43891        0.28979       -0.24807
C          3.48090        0.23119        0.73817
C          3.85048        0.13222        2.05804
C          5.18969        0.08517        2.42130
H          7.19057        0.13231        1.69018
H          6.53176        0.30047       -0.67543
H          4.13514        0.35710       -1.28104
H          3.08915        0.07446        2.81464
C          5.58376       -0.00177        3.85402
C          0.66725        4.69731       -0.36463
C          1.72396        4.14493       -1.06169
C          2.05865        2.81696       -0.87184
C          1.33437        2.05191        0.01188
C          0.29971        2.60984        0.72807
C         -0.05920        3.93770        0.54221
H          0.39800        5.72778       -0.52173
H          2.28173        4.74520       -1.76163
H          2.87422        2.37083       -1.41710
H         -0.23608        2.01532        1.44452
C         -1.20954        4.50986        1.29373
Pd        -0.06610       -0.61291        1.42996
C          1.65368        1.54940       -4.22375
C         -0.06979       -1.30820       -4.53793
H          2.27779        0.72745       -3.87105
H          1.37640        1.34330       -5.25830
H          2.26470        2.45318       -4.21341
H          0.60620       -1.12196       -5.37337
H         -0.67723       -2.17924       -4.78728
H         -0.74130       -0.45366       -4.45130
H         -2.58031       -5.77092        0.05752
H         -1.59251       -6.27370       -1.31699
H         -0.84950       -5.42754        0.03786
H         -2.94007        2.63802        3.81257
H         -4.68214        2.90079        3.82607
H         -4.01152        1.39713        4.46412
H          5.71986        0.99355        4.27918
H          4.82118       -0.51644        4.44042
H          6.51912       -0.55053        3.97268
H         -2.13404        3.98793        1.04164
H         -1.05452        4.41756        2.36965
H         -1.34969        5.56714        1.06505
