111
-148.55313773
P         -2.69364        1.82622        0.01613
P          0.14761        0.48980        0.36174
C         -1.84818        1.91737        1.61837
C         -0.58178        1.38887        1.74503
C         -3.65892        3.36855       -0.32546
C         -2.93238        4.29177       -1.27900
C         -2.45750        2.51000        2.70604
H         -3.45557        2.90444        2.60940
C         -1.78992        2.57872        3.91677
H         -2.26497        3.04156        4.76634
C         -0.51801        2.05285        4.03893
H         -0.00003        2.10350        4.98249
C          0.08600        1.44995        2.95033
H          1.06954        1.01451        3.03366
Pd        -1.09138        1.13152       -1.50006
Cl        -2.55488        1.65448       -3.11223
Cl         0.61619        0.29933       -2.70366
C         -4.99780        2.81620       -0.84709
C         -4.04605        0.56404       -0.07336
H         -2.76114        3.80412       -2.23910
H         -3.50764        5.20045       -1.47075
H         -1.95736        4.58413       -0.88209
H         -4.94004        2.72786       -1.94082
H         -5.81167        3.53060       -0.64980
H         -3.85986       -0.01398       -0.98857
C         -5.31565        1.42322       -0.23100
C         -4.04502       -0.33866        1.14117
H         -3.80728        3.86221        0.64324
H         -5.77560        1.55805        0.75758
H         -6.06593        0.88991       -0.83422
H         -4.15917        0.24392        2.05716
H         -4.86252       -1.06231        1.10234
H         -3.10830       -0.89325        1.22029
C         -1.39372       -3.78885        0.63213
C         -0.88687       -3.29979       -0.60088
C         -0.41090       -2.00176       -0.64023
C         -0.35608       -1.22749        0.48815
C         -0.71758       -1.74248        1.70555
C         -1.20111       -3.03525        1.82084
O         -2.16972       -4.97603        0.65987
C         -0.84621       -4.11517       -1.90357
H         -0.09828       -1.56410       -1.57203
H         -0.64612       -1.10938        2.57313
C         -1.50542       -3.56456        3.23207
C          4.66779        0.97651        0.08802
C          3.85122        2.10694        0.34678
C          2.48226        1.91892        0.45025
C          1.92183        0.68443        0.24901
C          2.69647       -0.38885       -0.10447
C          4.06986       -0.26834       -0.23435
O          6.08130        1.08334        0.17934
C          4.43189        3.51716        0.53689
H          1.82925        2.73856        0.69654
H          2.20787       -1.33040       -0.28407
C          4.88503       -1.47981       -0.71340
C          0.55198       -3.98298       -2.54624
C         -1.09241       -5.61497       -1.66627
C         -1.90234       -3.56772       -2.87866
C         -1.69364       -5.09130        3.25667
C         -0.31888       -3.24073        4.16651
C         -2.77223       -2.88083        3.77345
C         -3.55112       -4.73049        0.45291
H          0.62618       -4.59561       -3.44428
H          0.77031       -2.95630       -2.83509
H          1.32487       -4.31068       -1.85190
H         -0.39796       -6.00546       -0.92322
H         -2.10230       -5.79679       -1.30655
H         -0.96278       -6.18468       -2.58615
H         -2.90394       -3.65183       -2.46118
H         -1.72210       -2.51596       -3.09906
H         -1.88366       -4.11519       -3.82054
H         -2.57693       -5.38895        2.69664
H         -0.83324       -5.59166        2.81370
H         -1.81190       -5.45626        4.27666
H         -0.47580       -3.66893        5.15622
H          0.60819       -3.65009        3.76611
H         -0.18561       -2.16784        4.29491
H         -3.63437       -3.09384        3.14438
H         -2.99962       -3.22549        4.78185
H         -2.64641       -1.79909        3.80996
H         -3.70308       -4.22947       -0.50187
H         -4.08901       -5.67874        0.45274
H         -3.94162       -4.09582        1.24659
C          6.60391        0.79792        1.47063
C          5.69191        3.71837       -0.32476
C          3.41173        4.59218        0.09816
C          4.76424        3.73419        2.02086
C          5.32456       -2.31252        0.50012
C          4.03275       -2.37479       -1.64204
C          6.11400       -1.03256       -1.52549
H          5.47439        3.52063       -1.37383
H          6.06493        4.73886       -0.24173
H          6.49296        3.05007       -0.01886
H          3.05585        4.39847       -0.91343
H          2.55132        4.62752        0.76475
H          3.86515        5.58309        0.10929
H          5.16831        4.73219        2.18870
H          3.87126        3.62340        2.63568
H          5.49775        3.01169        2.37035
H          5.89454       -3.18708        0.18748
H          5.94718       -1.72946        1.17427
H          4.45842       -2.65789        1.06419
H          4.64248       -3.15668       -2.09413
H          3.23157       -2.87014       -1.09605
H          3.58939       -1.78798       -2.44619
H          5.81153       -0.40600       -2.36390
H          6.65626       -1.89093       -1.92119
H          6.80647       -0.45937       -0.91400
H          7.14236        1.66740        1.84726
H          5.79817        0.54203        2.15980
H          7.30537       -0.03362        1.40531
