111
-148.55433407
P         -1.98747        2.64648        0.23223
P         -0.37672       -0.05074        0.54206
C         -1.77238        1.90883        1.87592
C         -1.12943        0.69574        1.99776
C         -1.12978        4.28034        0.12719
C         -0.01511        4.22062       -0.89607
C         -2.23067        2.55930        3.00369
H         -2.70418        3.52251        2.90654
C         -2.06319        1.97900        4.24928
H         -2.42451        2.48445        5.12996
C         -1.43004        0.75616        4.36600
H         -1.29581        0.30717        5.33633
C         -0.95237        0.11614        3.23622
H         -0.42755       -0.82351        3.31039
Pd        -1.29894        1.03407       -1.27220
Cl        -2.59401        1.97262       -2.84146
Cl        -0.49286       -0.60404       -2.58334
C         -2.26361        5.26304       -0.23039
C         -3.73186        3.17756       -0.09006
H          0.50337        5.17874       -0.98013
H          0.72226        3.45579       -0.64066
H         -0.41233        3.97089       -1.88221
H         -2.22635        5.46400       -1.30977
H         -2.09398        6.23616        0.25451
H         -3.91964        2.96744       -1.15093
C         -3.66567        4.69836        0.13684
C         -4.73177        2.44007        0.77500
H         -0.73825        4.48533        1.13211
H         -3.88605        4.91106        1.19188
H         -4.45673        5.20520       -0.43686
H         -4.55522        2.63401        1.83342
H         -5.75550        2.74931        0.55220
H         -4.66346        1.36012        0.62456
C         -0.80747       -4.55867        0.10426
C          0.40647       -4.01906        0.60139
C          0.50748       -2.64425        0.73460
C         -0.55612       -1.82719        0.45351
C         -1.76384       -2.35031        0.07354
C         -1.93531       -3.71710       -0.07441
O         -0.88012       -5.93270       -0.24842
C          1.62219       -4.89481        0.94257
H          1.43265       -2.18747        1.04016
H         -2.57081       -1.66753       -0.13207
C         -3.31874       -4.25258       -0.47496
C          3.93848        1.36268        0.18292
C          3.04897        2.02323        1.06920
C          1.75285        1.54641        1.17157
C          1.31861        0.50634        0.39130
C          2.13846       -0.05414       -0.55155
C          3.44851        0.36698       -0.70046
O          5.32285        1.68110        0.19409
C          3.47976        3.21707        1.93678
H          1.06090        1.98104        1.87107
H          1.72830       -0.82055       -1.18550
C          4.31885       -0.27210       -1.79381
C          2.49261       -4.22474        2.03011
C          1.18100       -6.26099        1.49808
C          2.48025       -5.08580       -0.31748
C         -4.43768       -3.34756        0.08969
C         -3.42973       -4.26824       -2.00738
C         -3.55746       -5.66353        0.09251
C         -0.54483       -6.20217       -1.60415
H          2.98119       -3.32526        1.65802
H          1.89059       -3.95616        2.89780
H          3.27980       -4.89973        2.36532
H          2.04161       -6.85935        1.79605
H          0.53937       -6.13190        2.36907
H          0.62578       -6.83025        0.75671
H          3.36914       -5.67714       -0.09918
H          1.92407       -5.59363       -1.10120
H          2.80273       -4.12311       -0.71270
H         -4.44453       -2.36851       -0.38697
H         -5.41779       -3.79223       -0.08140
H         -4.31700       -3.20634        1.16343
H         -4.40716       -4.63022       -2.32502
H         -3.29188       -3.26617       -2.41303
H         -2.67270       -4.90967       -2.45174
H         -4.56229       -6.01477       -0.14077
H         -2.85456       -6.38275       -0.31970
H         -3.44014       -5.66595        1.17565
H          0.27998       -6.91361       -1.64149
H         -1.39952       -6.64789       -2.11251
H         -0.25691       -5.28213       -2.11455
C          6.09369        0.90323        1.10133
C          4.53810        4.07141        1.21549
C          2.28118        4.14686        2.23273
C          4.03327        2.69979        3.27307
C          5.06339       -1.48204       -1.20905
C          3.44650       -0.75814       -2.97418
C          5.32234        0.74574       -2.36493
H          5.45336        3.51022        1.04510
H          4.16615        4.40520        0.24731
H          4.79649        4.95282        1.80183
H          1.80150        4.46558        1.30877
H          1.53529        3.66080        2.85977
H          2.60857        5.04159        2.76174
H          4.89317        2.05240        3.12067
H          4.34283        3.52549        3.91329
H          3.27628        2.12477        3.80596
H          5.72102       -1.18642       -0.39564
H          4.35867       -2.21335       -0.81477
H          5.66967       -1.97287       -1.96994
H          2.80127        0.04207       -3.33576
H          4.06904       -1.08759       -3.80565
H          2.81983       -1.60265       -2.69104
H          6.02501        1.07912       -1.60523
H          4.80236        1.62350       -2.74720
H          5.89998        0.31129       -3.18042
H          6.56684        1.55703        1.83368
H          5.46109        0.17809        1.61484
H          6.87998        0.38050        0.55699
