171
-217.84522004
P         -1.60634        0.45014       -0.28558
P          1.61183       -0.38567       -0.35366
C         -0.88885        1.42537       -1.61452
C          0.84937       -1.30538       -1.69582
C         -0.10612        0.82528       -2.59473
C          0.52806        1.64283       -3.54990
C          0.32717        3.01250       -3.50993
C         -0.47534        3.58565       -2.54638
C         -1.07551        2.78623       -1.59385
C          1.02997       -2.66605       -1.74511
C          0.41786       -3.41293       -2.73238
C         -0.38641       -2.78781       -3.66155
C         -0.58203       -1.41711       -3.62946
C          0.05950       -0.65330       -2.63549
Cl         1.73068        0.41345        2.74747
Cl        -1.53488       -0.26061        2.88533
C         -1.44681       -0.77472       -4.65715
C          1.40980        1.06529       -4.60148
H         -0.62911        4.65224       -2.53123
H         -1.69407        3.22741       -0.82952
H          1.65532       -3.14723       -1.01091
H          0.56796       -4.47927       -2.77558
H          0.81176        3.63236       -4.24540
H         -0.87333       -3.36696       -4.42797
C         -3.86600       -3.27459       -1.48879
C         -2.89755       -3.36742       -0.49635
C         -2.19037       -2.21773       -0.17276
C         -2.44578       -1.03613       -0.82229
C         -3.40796       -0.95783       -1.79874
C         -4.14361       -2.08388       -2.14992
H         -4.43958       -4.14539       -1.74458
H         -1.45271       -2.23608        0.61125
H         -3.59249       -0.00494       -2.26507
C         -4.46202        2.86089        2.28855
C         -4.95711        1.80805        1.52745
C         -4.06114        1.10307        0.73664
C         -2.73229        1.44318        0.70515
C         -2.25923        2.48458        1.46340
C         -3.11588        3.21046        2.28054
H         -5.13928        3.41635        2.90801
H         -4.40255        0.26863        0.14929
H         -1.20896        2.72041        1.43158
C          4.32181       -3.02227        2.15195
C          2.95563       -3.27795        2.14876
C          2.15104       -2.48033        1.34575
C          2.69183       -1.45405        0.61181
C          4.04003       -1.20044        0.64742
C          4.88713       -1.98910        1.41474
H          4.96892       -3.63664        2.74898
H          1.08883       -2.64742        1.29969
H          4.42487       -0.37224        0.08011
C          3.93036        3.26589       -1.66466
C          2.92363        3.41481       -0.71936
C          2.22013        2.27972       -0.33804
C          2.50404        1.06347       -0.90673
C          3.48925        0.93494       -1.85464
C          4.23099        2.04230       -2.25016
H          4.51234        4.12653       -1.93812
H          1.45112        2.33207        0.41275
H          3.67970       -0.03963       -2.27114
Pd         0.03828        0.05165        1.31836
C         -3.53518       -5.81276       -0.17836
C         -2.61121       -4.66509        0.27139
C         -2.83261       -4.42174        1.77664
C         -1.15296       -5.08617        0.02287
H         -3.39718       -6.03608       -1.23613
H         -3.32035       -6.72318        0.38111
H         -4.58240       -5.56162       -0.01079
H         -2.64267       -5.32822        2.35101
H         -2.17193       -3.64334        2.15558
H         -3.85858       -4.10830        1.96830
H         -0.90650       -5.98993        0.57979
H         -0.98658       -5.28554       -1.03508
H         -0.46158       -4.30228        0.32722
C         -6.61510       -2.32445       -2.45531
C         -5.28570       -2.02946       -3.17450
C         -5.04684       -3.08186       -4.27352
C         -5.38960       -0.64266       -3.83913
H         -6.79225       -1.59951       -1.66098
H         -7.45388       -2.27699       -3.14954
H         -6.60872       -3.31675       -2.00560
H         -4.09115       -2.91514       -4.76875
H         -5.03816       -4.09087       -3.86346
H         -5.83015       -3.03894       -5.03012
H         -4.46457       -0.38116       -4.35142
H         -6.19159       -0.62686       -4.57701
H         -5.60666        0.13090       -3.10285
C         -6.53525       -0.07849        2.00835
C         -6.43283        1.38516        1.53818
C         -7.00591        1.51115        0.11422
C         -7.27211        2.26367        2.48511
H         -7.57467       -0.40335        2.05041
H         -6.00408       -0.75011        1.33473
H         -6.10389       -0.19372        3.00245
H         -8.05767        1.22660        0.08983
H         -6.92455        2.53712       -0.24414
H         -6.47113        0.86990       -0.58540
H         -8.31543        1.94825        2.48173
H         -6.90946        2.19216        3.51035
H         -7.24304        3.30930        2.17925
C         -2.12125        5.50337        2.19018
C         -2.55211        4.36110        3.12614
C         -1.33610        3.85947        3.93086
C         -3.59656        4.90329        4.12091
H         -1.69507        6.33282        2.75421
H         -1.37379        5.16226        1.47590
H         -2.97311        5.88005        1.62432
H         -1.61263        3.00998        4.55491
H         -0.52524        3.54180        3.27721
H         -0.94725        4.64384        4.57980
H         -3.16634        5.68768        4.74353
H         -4.45229        5.33241        3.60028
H         -3.95307        4.11320        4.78160
C          3.24488       -4.83013        4.13852
C          2.33961       -4.42947        2.95652
C          2.15685       -5.64113        2.02805
C          0.97148       -4.00617        3.53135
H          2.75855       -5.58092        4.76125
H          4.18585       -5.25720        3.79365
H          3.46701       -3.96737        4.76634
H          1.52809       -5.38583        1.17621
H          3.11791       -5.97889        1.64063
H          1.69200       -6.47355        2.55603
H          0.56850       -4.77843        4.18626
H          1.06373       -3.08724        4.10996
H          0.23954       -3.83671        2.74397
C          7.15423       -2.99988        1.04178
C          6.39918       -1.73252        1.48312
C          6.78455       -1.37273        2.92934
C          6.81967       -0.57099        0.56058
H          6.87062       -3.28284        0.02821
H          8.23176       -2.83697        1.05768
H          6.93589       -3.84148        1.69795
H          6.55001       -2.18629        3.61484
H          7.85142       -1.16495        3.00932
H          6.24155       -0.48842        3.26240
H          7.89628       -0.40827        0.60862
H          6.56385       -0.78439       -0.47709
H          6.33323        0.35941        0.85318
C          1.39549        4.76030        0.79998
C          2.64986        4.78915       -0.09449
C          2.42399        5.82864       -1.20869
C          3.85909        5.20012        0.76334
H          1.18294        5.75080        1.20191
H          0.52413        4.43606        0.23208
H          1.52907        4.08551        1.64509
H          1.60127        5.52636       -1.85550
H          2.18109        6.80417       -0.78779
H          3.31094        5.94804       -1.82937
H          3.69396        6.16986        1.23248
H          4.03719        4.46866        1.55144
H          4.76386        5.26827        0.16008
C          5.21808        2.96749       -4.37446
C          5.39677        1.93602       -3.24380
C          5.47727        0.53211       -3.87471
C          6.71388        2.21554       -2.49753
H          6.02322        2.88642       -5.10456
H          4.27531        2.81275       -4.89714
H          5.22362        3.98642       -3.98989
H          5.66559       -0.22932       -3.11817
H          4.55240        0.28181       -4.39373
H          6.28899        0.48014       -4.60020
H          6.71684        3.21621       -2.06652
H          6.85579        1.50271       -1.68589
H          7.56833        2.13703       -3.16949
H         -0.89155       -0.60066       -5.57971
H          1.68935        0.03676       -4.36963
H         -1.83284        0.18424       -4.30877
H         -2.30166       -1.40708       -4.89776
H          2.33023        1.64206       -4.69238
H          0.91393        1.07110       -5.57310
