72
-98.09221896
Fe         0.03947        2.79494        0.04819
P          1.90548       -0.08184       -0.04397
P         -1.82625       -0.05622       -0.08795
C          1.44582        1.52955        0.70215
C          0.44020        1.75016        1.72844
C          0.40925        3.16945        2.03610
C          1.40375        3.82977        1.21020
C          2.04272        2.81733        0.38624
C         -1.41757        1.63902       -0.66745
C         -1.98077        2.88468       -0.16714
C         -1.36739        3.98206       -0.89540
C         -0.44292        3.41655       -1.86037
C         -0.48916        1.97037       -1.73384
C          3.46283       -0.65791        0.77048
C          4.54519       -0.00606       -0.10800
C          2.57322        0.18468       -1.75444
C          4.10625        0.08072       -1.59563
C         -3.00594       -0.77815       -1.31650
C         -4.31765       -0.08016       -0.92638
C         -3.03626        0.09939        1.32082
C         -4.41370        0.14427        0.61121
H         -0.18673        0.98233        2.18141
H         -0.23794        3.65174        2.77227
H          1.63769        4.89665        1.21445
H          2.84885        2.98457       -0.33150
H         -2.73691        2.97845        0.61490
H          0.04460        1.25438       -2.35851
Cl         1.56960       -3.00782        0.74201
Cl        -1.61325       -3.02279        0.13762
Pd         0.03008       -1.47561        0.14070
H          3.49960       -1.74855        0.67179
C          3.53480       -0.25541        2.23907
H          2.29253        1.21572       -2.00537
C          1.97068       -0.79226       -2.76604
H          5.49741       -0.54978       -0.00837
H          4.74367        1.00431        0.27700
H          4.59846        0.92984       -2.09294
H          4.46827       -0.80398       -2.13271
H         -1.58131        5.04413       -0.75636
H          0.15633        3.97780       -2.58087
H          4.54141       -0.47373        2.62221
H          0.87967       -0.67151       -2.76798
H         -3.07934       -1.85356       -1.12063
C         -2.54488       -0.53598       -2.74766
H         -2.81345        1.05251        1.81468
C         -2.95098       -1.03713        2.33928
H         -5.18398       -0.64968       -1.29718
H         -4.36010        0.88865       -1.44502
H         -4.92711        1.09242        0.82914
H         -5.05579       -0.63321        1.04775
H         -2.48029        0.54596       -2.92219
H         -3.01554       -1.99250        1.80373
C          2.48825       -0.94230        3.10076
H          2.55416       -0.64152        4.14874
H          1.48138       -0.70827        2.75511
H          2.59453       -2.02781        3.06011
C          2.30724       -2.25699       -2.51905
H          2.05070       -2.55837       -1.50435
H          1.76650       -2.91884       -3.19959
H          3.36968       -2.46348       -2.65263
C         -3.45240       -1.18326       -3.78252
H         -3.09880       -1.01231       -4.80186
H         -3.51255       -2.26278       -3.63204
H         -4.46928       -0.79201       -3.71861
C         -1.71009       -1.00479        3.21616
H         -0.80179       -1.11773        2.62661
H         -1.63352       -0.06173        3.76053
H         -1.71211       -1.80953        3.95493
H          3.42871        0.83502        2.31185
H          2.29464       -0.50647       -3.77652
H         -1.51778       -0.90953       -2.85958
H         -3.84557       -1.00611        2.97693
