59
-75.80662027
Cl         1.66300        0.47328        2.33050
P          1.62800       -0.10054       -0.85981
P         -1.59993       -0.13492       -0.77384
C          0.59441        0.25131       -2.34963
H          0.33825        1.31349       -2.35879
H          1.19088        0.04980       -3.24492
C         -0.64596       -0.59408       -2.28459
H         -0.38870       -1.65467       -2.21991
H         -1.29089       -0.46030       -3.15876
C          2.63481       -1.62262       -1.21268
H          2.48683       -1.79579       -2.28733
C          3.00756        1.11603       -0.61709
H          3.09491        1.25776        0.46700
C         -3.02231       -1.27079       -0.45275
H         -3.23335       -1.19491        0.62126
C         -2.55692        1.41950       -1.09937
H         -2.19358        1.81350       -2.05614
C          4.08530       -1.17017       -0.96998
H          4.38902       -1.44476        0.04741
H          4.77230       -1.71435       -1.63565
C          4.23846        0.36308       -1.15009
H          4.36239        0.59771       -2.21634
H          5.15335        0.72848       -0.65904
C         -4.14712       -0.60279       -1.26085
H         -4.08517       -0.94836       -2.30258
H         -5.13155       -0.93508       -0.89616
C         -4.02449        0.94610       -1.21219
H         -4.58140        1.31958       -0.34231
H         -4.51065        1.40377       -2.08641
C          2.20001       -2.86224       -0.43202
H          2.78706       -3.72394       -0.77908
H          1.16326       -3.09829       -0.70337
C          2.76118        2.45937       -1.29390
H          3.69217        3.04312       -1.27963
H          2.54607        2.28844       -2.35658
C         -2.73090       -2.71861       -0.82285
H         -3.66774       -3.29279       -0.80675
H         -2.38697       -2.75878       -1.86425
C         -2.32803        2.43072        0.01801
H         -2.70556        2.00663        0.95843
H         -1.25029        2.55737        0.18029
C          2.32169       -2.74609        1.08068
H          3.36055       -2.65768        1.40099
H          1.90458       -3.61780        1.59043
H          1.79722       -1.86997        1.45908
C          1.64232        3.25525       -0.64226
H          0.70359        2.70322       -0.66461
H          1.47269        4.21250       -1.14041
H          1.86426        3.46319        0.40619
C         -1.71064       -3.35750        0.10610
H         -2.08639       -3.40781        1.12989
H         -0.79171       -2.77211        0.13877
H         -1.44966       -4.37283       -0.20067
C         -2.97453        3.78074       -0.25507
H         -2.79591        4.49128        0.55519
H         -2.58474        4.22460       -1.17312
H         -4.05509        3.68802       -0.37686
Cl        -1.54865       -0.05152        2.41126
Pd         0.04767        0.03747        0.83585
