105
-153.05971861
Cl         0.60091        3.68192        1.44646
Pd        -0.09675        1.93586        0.20377
P         -0.77799        0.23572       -1.30971
N          0.06138       -1.18336       -1.96206
C          0.15000       -2.50907       -1.54903
C         -0.15401       -2.96901       -0.23934
C          0.19325       -4.28729        0.12932
C          0.10107       -4.69049        1.58421
C          0.93771       -5.93004        1.93331
C          0.68011       -7.05219        0.92345
C          1.05231       -6.60748       -0.50052
C          0.69032       -5.17764       -0.82506
C          0.89517       -4.72999       -2.12359
C          0.65328       -3.42617       -2.47131
H          0.86732       -3.08915       -3.47086
H          1.28505       -5.41751       -2.85523
H          2.13120       -6.73217       -0.65261
H          1.22746       -7.96273        1.20539
H          2.00244       -5.66542        1.91881
H          0.41177       -3.84085        2.20565
C         -0.74039       -2.08780        0.80534
C          0.09344       -1.11178        1.41052
C         -0.35735       -0.43588        2.54442
C         -1.60407       -0.69474        3.05264
C         -2.45368       -1.61848        2.44993
C         -3.81062       -1.85554        3.05778
C         -4.40478       -3.21602        2.66551
C         -4.36736       -3.39475        1.14476
C         -2.93292       -3.29520        0.59511
C         -2.03185       -2.31369        1.31320
H         -2.47024       -4.28672        0.61545
H         -4.99023       -2.62099        0.68190
H         -5.42901       -3.32456        3.04972
H         -4.48376       -1.05030        2.74109
H         -1.94696       -0.16371        3.92433
H          0.27464        0.30546        2.99779
N          1.25547       -0.75793        0.73046
P          1.82972        0.85060        0.96802
C          2.93855        1.31466       -0.35588
C          3.17050        2.64749       -0.59860
C          3.94151        3.02277       -1.68324
C          4.47970        2.06366       -2.53129
C          4.21928        0.72328       -2.27717
C          3.44896        0.34962       -1.19081
H          3.23092       -0.68876       -0.99992
H          4.61550       -0.02575       -2.94132
C          5.27543        2.46698       -3.72344
H          4.11574        4.06542       -1.88696
H          2.70618        3.38468        0.03742
C          2.61583        0.93797        2.57474
C          3.32598       -0.15664        3.00665
C          3.94006       -0.13118        4.24665
C          3.83849        0.98859        5.06181
C          3.12179        2.08593        4.60317
C          2.51027        2.05690        3.36459
H          1.94311        2.89940        3.00719
H          3.04580        2.96313        5.22276
C          4.51911        1.02729        6.38586
H          4.50180       -0.98352        4.58872
H          3.38680       -1.02813        2.37348
H          1.10045       -0.86060       -0.27213
H          0.24484       -0.99590       -2.94000
C         -0.63183        1.41896       -2.65803
C         -1.72953        1.94341       -3.29713
C         -1.55560        2.86097       -4.31659
C         -0.28205        3.26299       -4.69748
C          0.81385        2.71425       -4.04577
C          0.63735        1.79629       -3.02681
H          1.48639        1.38518       -2.50500
H          1.80644        3.01403       -4.33512
C         -0.09421        4.23721       -5.80788
H         -2.41157        3.27533       -4.82128
H         -2.71755        1.64305       -2.98979
C         -2.51474       -0.17630       -1.15753
C         -3.07248       -0.94955       -2.14770
C         -4.42424       -1.24401       -2.11309
C         -5.22368       -0.76627       -1.08380
C         -4.64160        0.01451       -0.09436
C         -3.29030        0.30357       -0.12944
H         -2.83881        0.91037        0.63838
H         -5.25499        0.40106        0.70140
C         -6.68367       -1.05853       -1.06142
H         -4.86695       -1.84426       -2.88941
H         -2.44636       -1.31657       -2.94589
Cl        -2.01049        3.02325       -0.25579
H          0.57607       -7.26496       -1.23908
H          0.73090       -6.26943        2.95818
H         -0.38185       -7.32715        0.95378
H         -0.94506       -4.87614        1.84760
H         -4.82940       -4.34897        0.85526
H         -2.95648       -3.02124       -0.46675
H         -3.73854       -1.76870        4.14946
H         -3.82340       -4.01682        3.13970
H          5.78992        3.41351       -3.55198
H          6.03163        1.71823       -3.96335
H          4.63175        2.58699       -4.59596
H          3.97524        1.65882        7.08972
H          4.58863        0.02994        6.82237
H          5.53068        1.42402        6.28974
H         -0.92342        4.94446       -5.85498
H          0.82328        4.81242       -5.67581
H         -0.03438        3.72342       -6.76828
H         -6.89002       -2.05806       -1.44688
H         -7.08171       -1.00645       -0.04700
H         -7.23114       -0.34130       -1.67434
