105
-153.07123612
Cl         0.33174        1.96612        3.06069
Pd        -0.34786        1.47473        0.96906
P         -1.17616        0.73360       -1.06182
N         -0.19889       -0.41339       -1.95833
C          0.36087       -1.65199       -1.68060
C          0.26925       -2.30514       -0.42628
C          0.97849       -3.50691       -0.21852
C          0.88084       -4.18269        1.12849
C          1.95558       -5.25261        1.37555
C          2.10552       -6.16822        0.15729
C          2.49793       -5.35942       -1.08862
C          1.72505       -4.07444       -1.25349
C          1.76547       -3.43781       -2.48644
C          1.10269       -2.25675       -2.69509
H          1.17152       -1.76347       -3.64910
H          2.34648       -3.87564       -3.28050
H          3.56708       -5.11948       -1.05123
H          2.83844       -6.96322        0.35523
H          2.91568       -4.76260        1.58060
H          0.93468       -3.41670        1.91159
C         -0.70750       -1.88623        0.60933
C         -0.26323       -1.27523        1.81461
C         -1.18152       -1.11391        2.85669
C         -2.47957       -1.53463        2.72643
C         -2.92001       -2.16284        1.56801
C         -4.33221       -2.68269        1.51616
C         -4.47860       -3.88835        0.57763
C         -3.90146       -3.55981       -0.80240
C         -2.42096       -3.14540       -0.71963
C         -2.03325       -2.34713        0.50586
H         -1.79312       -4.04383       -0.75117
H         -4.48474       -2.74520       -1.24519
H         -5.52932       -4.20241        0.50060
H         -4.99536       -1.87407        1.18937
H         -3.17259       -1.39220        3.53816
H         -0.85871       -0.62680        3.75990
N          1.04769       -0.81038        1.98237
P          1.71041        0.25999        0.74217
C          2.91726       -0.62424       -0.24660
C          3.26842       -0.19679       -1.50455
C          4.23905       -0.88282       -2.21159
C          4.86732       -1.99150       -1.65911
C          4.52346       -2.38365       -0.37260
C          3.54890       -1.69906        0.33067
H          3.26723       -2.00069        1.32707
H          5.01879       -3.22909        0.07321
C          5.91626       -2.72463       -2.41987
H          4.51402       -0.56105       -3.20150
H          2.78381        0.66603       -1.92956
C          2.65501        1.60848        1.46251
C          3.42138        1.38507        2.58051
C          4.15428        2.42308        3.12715
C          4.13158        3.68540        2.54906
C          3.35310        3.88816        1.41739
C          2.62187        2.84948        0.87106
H          2.01910        3.00407       -0.00991
H          3.31910        4.86635        0.96896
C          4.89288        4.81164        3.15682
H          4.74638        2.25890        4.01118
H          3.44375        0.40180        3.02227
H          1.23271       -0.34792        2.86323
H         -0.21324       -0.11736       -2.92682
C         -0.99783        2.29788       -1.92511
C          0.26669        2.69140       -2.29265
C          0.45402        3.91023       -2.91903
C         -0.62616        4.74494       -3.17290
C         -1.89644        4.32609       -2.79941
C         -2.08050        3.10776       -2.17191
H         -3.06294        2.78967       -1.86331
H         -2.74094        4.96349       -2.99854
C         -0.43146        6.04833       -3.86634
H          1.44215        4.22066       -3.21293
H          1.10103        2.04186       -2.08506
C         -2.90380        0.27591       -1.19382
C         -3.33504       -0.30248       -2.36405
C         -4.67443       -0.60871       -2.52876
C         -5.59042       -0.33163       -1.52262
C         -5.13648        0.25993       -0.35197
C         -3.79930        0.57099       -0.19403
H         -3.45415        1.07412        0.69309
H         -5.83913        0.48390        0.43247
C         -7.02461       -0.70086       -1.67618
H         -5.01458       -1.07164       -3.43930
H         -2.62162       -0.50959       -3.14577
Cl        -2.11334        2.84470        1.16681
H          2.36732       -5.96854       -1.99226
H          1.72526       -5.83777        2.27706
H          1.15459       -6.68376       -0.02749
H         -0.11579       -4.62946        1.22378
H         -4.02798       -4.41053       -1.48662
H         -2.14114       -2.57011       -1.61031
H         -4.66202       -2.94320        2.52996
H         -3.94205       -4.74656        1.00152
H          5.71023       -2.70532       -3.49101
H          6.89757       -2.27705       -2.25686
H          5.96738       -3.77015       -2.11254
H          5.20883        5.52850        2.39764
H          4.28034        5.34235        3.88689
H          5.78842        4.45266        3.66592
H         -0.53170        5.93144       -4.94626
H         -1.16788        6.78273       -3.53711
H          0.55840        6.45903       -3.66246
H         -7.31577       -0.72493       -2.72719
H         -7.21800       -1.68661       -1.25061
H         -7.67139        0.01709       -1.16997
