72
-108.39936315
Cl        -1.86119        0.16790        2.81843
Cl         0.85817       -1.37529        2.63816
P          1.24830       -0.99891       -0.30333
P         -2.24281        0.20708       -0.37413
C         -3.40195       -1.29256       -0.29837
C         -4.11951       -1.28954        1.04817
C         -4.42927       -1.25480       -1.43720
C         -3.16532        1.85223       -0.09258
C         -4.52765        1.81657       -0.77661
C         -1.41362        0.41233       -2.05274
C         -1.31056       -0.83388       -2.91393
C          1.16786        0.34023       -1.53444
C         -0.03873        1.06193       -1.95044
C          0.40061        2.20678       -2.75293
C          1.84887        2.18323       -2.82971
C          2.31935        1.02733       -2.08976
C         -2.55909       -2.56286       -0.39561
H         -3.40685       -1.28507        1.87258
H         -4.77187       -0.42477        1.15510
H         -5.28079       -0.62177       -1.19380
H         -4.82974       -2.25163       -1.62893
C         -3.34097        2.12258        1.39657
H         -4.98339        2.80815       -0.77380
H         -5.21586        1.15159       -0.25805
H         -2.08106        1.11365       -2.56668
H         -2.26555       -1.32850       -3.07822
H         -0.62882       -1.55110       -2.46497
H         -0.89900       -0.59236       -3.89594
H         -0.25574        2.89078       -3.29486
H          2.47450        2.88868       -3.38165
Pd        -0.53418       -0.44339        1.11802
H          3.35928        0.73671       -1.92457
C         -2.33697        2.97638       -0.71106
H         -4.43869        1.49795       -1.81563
H         -2.37681        2.22954        1.89097
H         -3.89847        3.04599        1.56080
H         -3.88152        1.31791        1.89168
H         -2.37307        2.95589       -1.80006
H         -2.70774        3.95351       -0.39631
H         -1.29772        2.89710       -0.40722
H         -4.74147       -2.17998        1.15427
H         -4.00152       -0.88198       -2.36524
H         -3.19170       -3.45004       -0.33508
H         -2.01137       -2.62156       -1.33273
H         -1.84208       -2.62445        0.42243
C          2.94537       -1.06568        0.32707
C          3.45928       -2.11709        1.04407
C          4.78157       -1.79649        1.35147
C          5.02178       -0.55992        0.80501
O          3.90339       -0.10021        0.17167
H          2.93039       -3.01462        1.32042
H          5.47734       -2.40077        1.91035
H          5.95572       -0.01438        0.86043
C          0.84025       -2.63766       -0.92965
C          0.56542       -3.67693       -0.07677
C          0.28896       -4.79298       -0.86760
C          0.40841       -4.38538       -2.17410
O          0.74442       -3.06232       -2.22705
H          0.55825       -3.61849        1.00025
H          0.03224       -5.78048       -0.52056
H          0.25999       -5.00893       -3.04703
Fe         1.23423        2.24341       -0.90486
C          2.85198        2.69650        0.22122
C          1.88616        1.94753        0.99958
C          0.64443        2.69187        0.99487
C          0.84326        3.91396        0.23598
C          2.20787        3.90670       -0.25793
H          3.89013        2.40303        0.04821
H          2.06339        1.00266        1.51805
H         -0.24760        2.41247        1.55768
H          0.11397        4.71464        0.09351
H          2.68073        4.69382       -0.85004
