111
-148.55483658
P         -2.54989        2.07296        0.83685
P          0.12681        0.38209        0.50734
C         -1.47781        1.78035        2.27077
C         -0.29975        1.08219        2.11319
C         -3.33045        3.75033        0.89133
C         -2.69064        4.69308       -0.10431
C         -1.84055        2.24283        3.51961
H         -2.77298        2.76878        3.64332
C         -1.01406        2.01398        4.60630
H         -1.29664        2.37555        5.58151
C          0.17008        1.32094        4.44347
H          0.81255        1.14128        5.28970
C          0.52608        0.84912        3.19279
H          1.43930        0.29239        3.05028
Pd        -1.30901        1.40003       -0.98746
Cl        -2.93701        2.25457       -2.27423
Cl         0.03110        0.78291       -2.68213
C         -4.81652        3.44338        0.62795
C         -4.06058        1.00480        0.81903
H         -3.15251        5.68259       -0.07112
H         -1.62185        4.80996        0.09022
H         -2.79793        4.31466       -1.12162
H         -5.00991        3.53883       -0.44944
H         -5.45630        4.19736        1.11131
H         -4.14148        0.61002       -0.20269
C         -5.19558        2.00849        1.09514
C         -3.95061       -0.12236        1.82308
H         -3.19485        4.12374        1.91422
H         -5.40492        2.01775        2.17368
H         -6.12817        1.67300        0.61643
H         -4.85211       -0.73935        1.83224
H         -3.10031       -0.76979        1.59787
H         -3.80567        0.26957        2.83150
C         -1.18128       -3.97330        0.22612
C         -1.09488       -3.35160        1.49863
C         -0.67424       -2.03347        1.55873
C         -0.41969       -1.32197        0.41606
C         -0.61039       -1.88612       -0.81731
C         -1.02639       -3.19818       -0.95117
O         -1.38479       -5.37585        0.13360
C         -1.41963       -4.09517        2.80361
H         -0.53381       -1.54296        2.50554
H         -0.42188       -1.27605       -1.68339
C         -1.27592       -3.75690       -2.36044
C          4.49631        0.83862       -0.68584
C          3.81939       -0.38380       -0.92698
C          2.49100       -0.47997       -0.55069
C          1.85951        0.54812        0.09835
C          2.53688        1.69405        0.42337
C          3.87127        1.85318        0.08467
O          5.78034        1.06303       -1.24966
C          4.47904       -1.58156       -1.62779
H          1.92131       -1.36318       -0.77917
H          2.00156        2.47132        0.94112
C          4.60855        3.12672        0.52778
C         -0.14863       -4.78025        3.32764
C         -1.93039       -3.11248        3.88211
C         -2.53167       -5.13691        2.58402
C          0.03790       -4.32100       -2.92248
C         -2.36058       -4.84895       -2.34249
C         -1.77799       -2.64037       -3.30541
C         -0.18130       -6.13240        0.09275
H         -0.34512       -5.30597        4.26171
H          0.23397       -5.50218        2.61020
H          0.63639       -4.04700        3.51120
H         -2.27248       -3.65183        4.76510
H         -1.14848       -2.42871        4.20913
H         -2.76672       -2.52399        3.50631
H         -2.80768       -5.61915        3.52143
H         -3.42232       -4.66567        2.16961
H         -2.21476       -5.91569        1.89467
H          0.42916       -5.11464       -2.29019
H         -0.10798       -4.72743       -3.92292
H          0.79651       -3.54106       -2.98327
H         -2.58109       -5.19898       -3.35061
H         -2.04836       -5.70973       -1.75675
H         -3.28286       -4.46587       -1.90701
H         -2.08234       -3.05431       -4.26632
H         -2.63673       -2.12545       -2.87548
H         -1.00332       -1.90233       -3.50751
H         -0.12750       -6.68640       -0.84421
H          0.68496       -5.47478        0.17621
H         -0.17374       -6.84968        0.91334
C          5.74627        1.65255       -2.54345
C          5.98843       -1.63971       -1.33186
C          3.87060       -2.91083       -1.12342
C          4.23739       -1.47501       -3.14125
C          4.03244        3.65247        1.86242
C          6.10418        2.84876        0.76520
C          4.43595        4.21370       -0.54380
H          6.16761       -1.67272       -0.25773
H          6.44160       -2.52416       -1.77896
H          6.50509       -0.76969       -1.72893
H          4.41996       -3.76351       -1.52184
H          3.90884       -2.96652       -0.03584
H          2.83392       -3.02611       -1.43565
H          3.16983       -1.46070       -3.36015
H          4.66901       -0.56245       -3.54561
H          4.67950       -2.32000       -3.66841
H          4.63327        4.47729        2.24489
H          3.01628        4.02568        1.74458
H          4.02405        2.86647        2.61719
H          6.61262        3.73565        1.14257
H          6.23489        2.04766        1.49192
H          6.60317        2.55017       -0.15332
H          3.38084        4.43806       -0.69852
H          4.84946        3.89580       -1.49786
H          4.93784        5.13517       -0.24977
H          4.71581        1.84007       -2.84816
H          6.29916        2.59174       -2.53177
H          6.22185        0.98617       -3.26281
