59
-75.80064841
Cl         1.42921        0.26882        2.42005
P          1.54518       -0.10729       -0.72880
P         -1.67674       -0.12567       -0.87319
C          0.63661        0.36117       -2.27191
H          0.43773        1.43408       -2.24140
H          1.29749        0.18042       -3.12517
C         -0.64445       -0.41950       -2.37641
H         -0.43911       -1.48941       -2.45006
H         -1.22835       -0.14352       -3.25976
C          2.31608       -1.76387       -1.05066
H          1.66644       -2.24503       -1.79342
C          3.12426        0.84926       -0.58550
H          3.49383        0.69865        0.43528
C         -2.85809       -1.49747       -0.46883
H         -2.84547       -1.58543        0.62479
C         -2.89369        1.24628       -1.17406
H         -2.84079        1.46744       -2.24695
C          3.68424       -1.41327       -1.68344
H          4.46853       -2.00345       -1.19141
H          3.71203       -1.74111       -2.73352
C          4.02376        0.10804       -1.59097
H          3.89254        0.57762       -2.57673
H          5.08484        0.25890       -1.33891
C         -4.21048       -0.93787       -0.93879
H         -4.37224       -1.23317       -1.98482
H         -5.03373       -1.39774       -0.37076
C         -4.25056        0.60800       -0.82245
H         -4.51359        0.88651        0.20732
H         -5.04787        1.02925       -1.45336
C          2.40595       -2.63450        0.20446
H          2.72118       -3.64619       -0.08736
H          1.40054       -2.75565        0.62842
C          2.95926        2.34154       -0.85233
H          3.94743        2.78411       -1.04050
H          2.40147        2.47963       -1.78692
C         -2.48812       -2.83455       -1.09936
H         -3.32735       -3.53351       -0.97777
H         -2.38259       -2.69980       -2.18352
C         -2.59765        2.50574       -0.36567
H         -3.46535        3.17770       -0.42303
H         -2.51485        2.23343        0.69425
C          3.34074       -2.10731        1.28289
H          3.35253       -2.75462        2.16288
H          3.03842       -1.11683        1.61901
H          4.36952       -2.02608        0.92988
C          2.27799        3.07184        0.29524
H          2.11284        4.12828        0.07209
H          2.87630        3.01743        1.20673
H          1.31092        2.62814        0.53109
C         -1.22449       -3.43439       -0.50686
H         -0.38212       -2.75246       -0.61608
H         -0.95085       -4.37765       -0.98503
H         -1.34143       -3.62702        0.56137
C         -1.34878        3.23910       -0.82242
H         -0.46785        2.60659       -0.72712
H         -1.42263        3.53368       -1.87097
H         -1.16589        4.14331       -0.23726
Cl        -1.83847        0.44090        2.29109
Pd        -0.15391        0.17405        0.83584
