105
-153.06576178
Cl        -0.03073        1.93133        3.09178
Pd        -0.45774        1.30987        0.96935
P         -1.11258        0.50185       -1.14959
N         -0.73172       -1.01032       -1.97045
C          0.18728       -2.00096       -1.62732
C          0.32347       -2.48284       -0.30128
C          1.28531       -3.47637       -0.02393
C          1.40612       -4.00139        1.38716
C          2.23423       -5.28859        1.52391
C          3.50390       -5.21694        0.67089
C          3.14823       -5.02694       -0.81094
C          2.08658       -3.98315       -1.05099
C          1.89625       -3.53086       -2.35065
C          0.96321       -2.56925       -2.63664
H          0.83972       -2.21689       -3.64584
H          2.50412       -3.94090       -3.13937
H          4.04420       -4.75874       -1.38551
H          4.12112       -4.37487        1.00859
H          2.48339       -5.48325        2.57663
H          1.85003       -3.21526        2.00864
C         -0.67439       -2.12423        0.73505
C         -0.24891       -1.53746        1.95760
C         -1.18002       -1.40242        2.99158
C         -2.47907       -1.80811        2.82977
C         -2.91638       -2.37459        1.63863
C         -4.35176       -2.83628        1.55741
C         -4.81736       -3.20877        0.14066
C         -3.73847       -4.00925       -0.59310
C         -2.44004       -3.19661       -0.70271
C         -2.01327       -2.53494        0.58547
H         -1.62576       -3.83886       -1.06080
H         -4.09119       -4.32058       -1.58658
H         -5.03602       -2.29563       -0.42634
H         -4.99833       -2.05559        1.97727
H         -3.18113       -1.69096        3.63794
H         -0.86704       -0.94657        3.91450
N          1.04900       -1.03703        2.13726
P          1.60620        0.18515        0.99559
C          2.62048       -0.36016       -0.36546
C          2.41197        0.20023       -1.60078
C          3.23209       -0.14922       -2.65780
C          4.27550       -1.04700       -2.47310
C          4.47739       -1.58902       -1.21011
C          3.65482       -1.23880       -0.15435
H          3.81116       -1.64591        0.83198
H          5.27982       -2.29066       -1.05936
C          5.13193       -1.45809       -3.61929
H          3.06171        0.27004       -3.63454
H          1.60145        0.89681       -1.73173
C          2.53391        1.49389        1.80333
C          3.24418        1.23472        2.95068
C          3.96072        2.25049        3.55730
C          3.96794        3.53007        3.01817
C          3.26065        3.76523        1.84681
C          2.54548        2.74846        1.24053
H          1.99361        2.92855        0.33085
H          3.27205        4.75030        1.41254
C          4.75453        4.61933        3.66023
H          4.51985        2.05449        4.45624
H          3.24370        0.23948        3.36462
H          1.20708       -0.60815        3.03990
H         -1.00741       -0.91758       -2.94003
C         -0.61759        1.87198       -2.20890
C         -0.87201        3.16603       -1.82242
C         -0.47706        4.22069       -2.62259
C          0.18258        3.98778       -3.82120
C          0.41716        2.67541       -4.20747
C          0.01782        1.62364       -3.40353
H          0.21636        0.60774       -3.70065
H          0.91642        2.48224       -5.14163
C          0.59167        5.12171       -4.69547
H         -0.68001        5.23380       -2.31997
H         -1.38598        3.34511       -0.89324
C         -2.90797        0.53447       -1.08586
C         -3.59044        0.80135       -2.24906
C         -4.97393        0.82284       -2.24708
C         -5.68210        0.58795       -1.07661
C         -4.97502        0.31181        0.08501
C         -3.59313        0.27633        0.07592
H         -3.04160        0.06281        0.97721
H         -5.51402        0.12677        0.99822
C         -7.17100        0.58823       -1.07574
H         -5.51233        1.02591       -3.15701
H         -3.03763        0.99307       -3.15548
Cl        -2.29071        2.62393        0.97565
H          2.80335       -5.97839       -1.23310
H          1.62976       -6.14580        1.20181
H          4.12315       -6.11368        0.81490
H          0.39826       -4.16019        1.79103
H         -3.54036       -4.93916       -0.04544
H         -2.55981       -2.41899       -1.46578
H         -4.47319       -3.70059        2.22132
H         -5.76344       -3.76743        0.17319
H          5.23064       -0.65081       -4.34634
H          6.13489       -1.72725       -3.28513
H          4.70452       -2.32162       -4.13084
H          4.29432        5.59270        3.48478
H          4.81912        4.47449        4.73952
H          5.76997        4.65007        3.26292
H          1.47910        4.86974       -5.27778
H         -0.20635        5.38067       -5.39262
H          0.82460        6.00932       -4.10557
H         -7.56483        1.28453       -1.81744
H         -7.55850       -0.40512       -1.30645
H         -7.56383        0.88516       -0.10230
