111
-148.55172583
P         -2.53938        2.01581        1.08690
P          0.11097        0.41672        0.48895
C         -1.45733        1.52892        2.46058
C         -0.26622        0.89393        2.18436
C         -3.40298        3.61254        1.46028
C         -2.72578        4.80909        0.82887
C         -1.80786        1.78762        3.77094
H         -2.75042        2.26118        3.98924
C         -0.95624        1.42023        4.79857
H         -1.22992        1.62288        5.82118
C          0.24234        0.79372        4.51658
H          0.90437        0.50633        5.31679
C          0.58603        0.52464        3.20426
H          1.50789        0.01733        2.96709
Pd        -1.32928        1.63026       -0.85701
Cl        -2.60466        3.16943       -1.86807
Cl        -0.13418        1.08781       -2.67885
C         -4.83514        3.33267        0.97239
C         -4.00555        0.90835        0.84137
H         -2.72400        4.72987       -0.25777
H         -3.23734        5.73909        1.08701
H         -1.68591        4.89211        1.15301
H         -4.90647        3.60903       -0.08877
H         -5.55441        3.97978        1.49745
H         -4.00026        0.62749       -0.22038
C         -5.20290        1.83062        1.14512
C         -3.91615       -0.31928        1.72178
H         -3.39833        3.71386        2.55269
H         -5.53184        1.65304        2.17810
H         -6.06282        1.56274        0.51290
H         -3.85382       -0.03690        2.77442
H         -4.79030       -0.96322        1.60063
H         -3.02767       -0.90954        1.48813
C         -1.24102       -3.88409       -0.18690
C         -1.06719       -3.40124        1.13535
C         -0.63983       -2.09559        1.30621
C         -0.45506       -1.26515        0.23237
C         -0.71605       -1.69885       -1.03959
C         -1.15293       -2.98871       -1.28316
O         -1.46542       -5.26810       -0.41346
C         -1.30332       -4.27848        2.37448
H         -0.43846       -1.70873        2.28918
H         -0.56368       -1.00556       -1.84762
C         -1.49937       -3.39620       -2.72355
C          4.52298        0.62575       -0.60071
C          4.01134       -0.50839        0.08053
C          2.66030       -0.53525        0.38354
C          1.85179        0.53583        0.10609
C          2.36207        1.67744       -0.45262
C          3.70267        1.76781       -0.78980
O          5.84237        0.60278       -1.12610
C          4.88227       -1.71656        0.45932
H          2.21236       -1.40835        0.82649
H          1.68774        2.49371       -0.64631
C          4.23071        3.07553       -1.39987
C         -1.73306       -3.41549        3.58319
C         -2.43252       -5.29466        2.12548
C         -0.00088       -5.00963        2.73364
C         -2.59677       -4.47545       -2.74829
C         -2.04422       -2.18390       -3.51401
C         -0.23253       -3.91017       -3.42391
C         -0.27554       -6.02233       -0.60798
H         -2.58783       -2.78938        3.32916
H         -2.01945       -4.04535        4.42511
H         -0.92545       -2.77115        3.92750
H         -2.64259       -5.87505        3.02353
H         -3.34859       -4.78488        1.82877
H         -2.16951       -5.99435        1.33602
H         -0.13273       -5.62965        3.62001
H          0.32750       -5.65224        1.92033
H          0.79805       -4.29643        2.93581
H         -2.26037       -5.39518       -2.27659
H         -3.48361       -4.13263       -2.21631
H         -2.88638       -4.71657       -3.77077
H         -2.41303       -2.49327       -4.49157
H         -2.86793       -1.71125       -2.97964
H         -1.27391       -1.43400       -3.68674
H         -0.44501       -4.19906       -4.45287
H          0.53695       -3.13864       -3.44174
H          0.17898       -4.77538       -2.90947
H          0.60160       -5.38056       -0.51526
H         -0.22338       -6.81900        0.13399
H         -0.28830       -6.47918       -1.59733
C          5.92940        0.09130       -2.45034
C          6.32775       -1.28493        0.76581
C          4.33796       -2.40223        1.73389
C          4.86390       -2.73657       -0.68940
C          5.70487        3.31015       -1.02364
C          4.07363        3.01948       -2.92720
C          3.43282        4.28812       -0.86844
H          6.34419       -0.53135        1.55248
H          6.92842       -2.13241        1.09515
H          6.81031       -0.86112       -0.11122
H          5.02297       -3.17632        2.07912
H          4.21562       -1.67980        2.54050
H          3.37740       -2.88342        1.55530
H          3.84638       -3.07098       -0.89107
H          5.25764       -2.30536       -1.60656
H          5.46469       -3.61194       -0.44393
H          6.34795        2.53588       -1.43422
H          6.05876        4.26791       -1.40437
H          5.82937        3.30832        0.05870
H          4.63860        2.19334       -3.35186
H          3.02804        2.88001       -3.20106
H          4.42468        3.94116       -3.39046
H          3.88572        5.22314       -1.19740
H          3.41219        4.29141        0.22104
H          2.40635        4.28622       -1.23207
H          4.94068       -0.19045       -2.81481
H          6.35707        0.84823       -3.10758
H          6.58427       -0.77975       -2.46418
