105
-153.06875169
Cl         0.48928        1.97096        3.06371
Pd        -0.30487        1.49281        1.00771
P         -1.20621        0.75657       -1.00147
N         -0.19936       -0.35615       -1.90970
C          0.32740       -1.61731       -1.66981
C          0.23998       -2.29559       -0.42869
C          0.92482       -3.51661       -0.25652
C          0.83079       -4.21775        1.07731
C          1.89344       -5.30690        1.28927
C          2.00820       -6.20481        0.05396
C          2.39099       -5.38278       -1.18656
C          1.64315       -4.07876       -1.31397
C          1.67960       -3.41695       -2.53380
C          1.04109       -2.21683       -2.70751
H          1.10865       -1.70441       -3.65149
H          2.23935       -3.85030       -3.34538
H          3.46565       -5.16631       -1.16843
H          2.73226       -7.01371        0.22650
H          2.86407       -4.83410        1.48494
H          0.90246       -3.46884        1.87551
C         -0.70485       -1.87269        0.63321
C         -0.22497       -1.25840        1.82296
C         -1.12068       -1.07078        2.88033
C         -2.43101       -1.46000        2.77476
C         -2.90947       -2.08933        1.63163
C         -4.34646       -2.55663        1.62846
C         -4.80807       -3.24385        0.33071
C         -3.67444       -4.04201       -0.31953
C         -2.48218       -3.12584       -0.62799
C         -2.03825       -2.31595        0.56470
H         -1.63908       -3.72001       -1.00117
H         -4.02398       -4.55197       -1.22846
H         -5.16029       -2.48673       -0.37877
H         -4.99114       -1.69677        1.85022
H         -3.10698       -1.29191        3.59603
H         -0.77235       -0.58034        3.77217
N          1.09611       -0.81022        1.95690
P          1.73379        0.25141        0.69549
C          2.91477       -0.64802       -0.31148
C          3.26821       -0.20834       -1.56455
C          4.21951       -0.90440       -2.28790
C          4.82642       -2.03497       -1.75610
C          4.48160       -2.43933       -0.47361
C          3.52626       -1.74469        0.24584
H          3.24372       -2.05499        1.23926
H          4.96100       -3.30209       -0.04384
C          5.85487       -2.77932       -2.53376
H          4.49605       -0.57328       -3.27428
H          2.80078        0.67270       -1.97177
C          2.70979        1.60012        1.37170
C          3.51981        1.38405        2.45991
C          4.27888        2.42420        2.96512
C          4.22924        3.68359        2.38214
C          3.42107        3.87363        1.26915
C          2.66345        2.83298        0.76405
H          2.03356        2.97799       -0.09963
H          3.38731        4.84252        0.80095
C          5.05978        4.79888        2.91478
H          4.91492        2.26336        3.81873
H          3.55734        0.40445        2.90876
H          1.31015       -0.34758        2.83108
H         -0.21347       -0.04001       -2.87172
C         -1.02789        2.34674       -1.81676
C         -2.08519        3.22061       -1.90434
C         -1.90282        4.46057       -2.48867
C         -0.65813        4.83707       -2.97606
C          0.39668        3.93910       -2.88005
C          0.21101        2.69868       -2.29721
H          1.02765        2.00097       -2.21049
H          1.36393        4.21725       -3.26245
C         -0.46895        6.16547       -3.62202
H         -2.72793        5.14799       -2.56450
H         -3.04495        2.93414       -1.50599
C         -2.92150        0.27750       -1.22335
C         -3.28308       -0.28838       -2.42321
C         -4.60614       -0.61723       -2.66068
C         -5.57722       -0.37386       -1.69912
C         -5.19692        0.21977       -0.50340
C         -3.87446        0.54365       -0.26979
H         -3.58399        1.03517        0.64235
H         -5.94482        0.43377        0.24090
C         -7.00438       -0.70833       -1.96095
H         -4.89248       -1.06306       -3.59783
H         -2.52761       -0.47139       -3.17054
Cl        -2.24441        2.51452        1.48237
H          2.22802       -5.97336       -2.09722
H          1.66999       -5.90282        2.18545
H          1.04649       -6.70324       -0.12175
H         -0.17090       -4.65317        1.17291
H         -3.35276       -4.83895        0.36264
H         -2.73894       -2.44375       -1.44398
H         -4.48161       -3.24465        2.47175
H         -5.67736       -3.88922        0.52004
H          6.84884       -2.36629       -2.35680
H          5.87318       -3.83362       -2.25392
H          5.65288       -2.72567       -3.60450
H          5.21517        4.69513        3.98954
H          6.03827        4.81785        2.43299
H          4.58029        5.76342        2.74225
H         -0.72771        6.12180       -4.68081
H         -1.09748        6.92348       -3.15252
H          0.56653        6.49928       -3.54205
H         -7.50877        0.11605       -2.46674
H         -7.09119       -1.59439       -2.59147
H         -7.53883       -0.91049       -1.03159
