111
-148.55080423
P         -2.22756        2.49577        0.34115
P         -0.18665        0.04627        0.48997
C         -1.70207        1.84467        1.94808
C         -0.81008        0.79664        2.00709
C         -2.09384        4.34260        0.35285
C         -1.23467        4.83936       -0.78891
C         -2.15021        2.43401        3.11304
H         -2.83335        3.26601        3.05995
C         -1.70666        1.96638        4.33803
H         -2.05875        2.42450        5.24786
C         -0.80300        0.92309        4.39450
H         -0.44754        0.56615        5.34710
C         -0.34675        0.34265        3.22466
H          0.38241       -0.45229        3.25177
Pd        -1.06471        1.29773       -1.25640
Cl        -2.19647        2.49327       -2.78276
Cl         0.22463        0.16297       -2.70270
C         -3.56489        4.80237        0.28077
C         -4.03334        2.29779       -0.01240
H         -0.23462        4.40173       -0.75342
H         -1.67762        4.56978       -1.74869
H         -1.12942        5.92666       -0.76897
H         -3.62510        5.75243       -0.26987
H         -3.93858        5.02306        1.29142
H         -4.10588        1.62795       -0.88044
C         -4.47467        3.72918       -0.38028
C         -4.77060        1.70702        1.17016
H         -1.64003        4.61573        1.31543
H         -5.52471        3.87699       -0.08859
H         -4.44922        3.85647       -1.47262
H         -4.34372        0.74493        1.46364
H         -4.71189        2.37143        2.03353
H         -5.82894        1.55366        0.94624
C         -1.18474       -4.39679        0.12584
C         -0.61129       -3.69786       -0.96578
C         -0.35546       -2.34648       -0.81414
C         -0.57798       -1.70317        0.37466
C         -1.04489       -2.39823        1.46033
C         -1.31989       -3.75335        1.38229
O         -1.65474       -5.72595       -0.04762
C         -0.29881       -4.36925       -2.31240
H          0.00456       -1.76031       -1.64034
H         -1.20699       -1.86309        2.37782
C         -1.77710       -4.49786        2.64713
C          4.24006        0.99471        0.04011
C          3.83246       -0.36272        0.14172
C          2.47894       -0.63387        0.25437
C          1.56302        0.37986        0.35158
C          1.96146        1.69080        0.37986
C          3.29825        2.03418        0.26405
O          5.56586        1.31184       -0.35227
C          4.80763       -1.55259        0.14650
H          2.12257       -1.64936        0.25853
H          1.20579        2.45162        0.48504
C          3.67162        3.52108        0.38824
C         -1.52521       -4.25870       -3.23077
C          0.89703       -3.67531       -3.00365
C          0.09211       -5.84573       -2.12016
C         -1.17865       -3.84260        3.91313
C         -3.30903       -4.44265        2.74554
C         -1.29808       -5.96101        2.63246
C         -3.01378       -5.81200       -0.45785
H         -1.78617       -3.21412       -3.39931
H         -1.33068       -4.71854       -4.19930
H         -2.39132       -4.74938       -2.79331
H          0.65091       -2.66249       -3.31867
H          1.75486       -3.62810       -2.33425
H          1.19900       -4.22262       -3.89623
H         -0.73122       -6.42469       -1.70965
H          0.37543       -6.30268       -3.06800
H          0.93544       -5.93301       -1.43589
H         -1.39173       -4.44340        4.79702
H         -0.09650       -3.74802        3.82607
H         -1.59693       -2.85316        4.09204
H         -3.77701       -4.91629        1.88602
H         -3.66109       -4.95112        3.64276
H         -3.65547       -3.41013        2.78449
H         -1.56605       -6.47052        3.55771
H         -1.74348       -6.51647        1.81095
H         -0.21547       -6.00904        2.51991
H         -3.44865       -4.81562       -0.54601
H         -3.07466       -6.32148       -1.41935
H         -3.57923       -6.39280        0.27070
C          5.71700        1.40939       -1.75869
C          4.40659       -2.54369        1.26229
C          4.74163       -2.27399       -1.20936
C          6.25612       -1.11914        0.43184
C          5.17031        3.72294        0.67128
C          3.28695        4.25494       -0.90706
C          2.90034        4.15147        1.56999
H          3.43680       -2.99992        1.07056
H          5.13308       -3.35189        1.34307
H          4.35786       -2.03823        2.22636
H          5.40067       -3.14170       -1.22183
H          3.72915       -2.61822       -1.41526
H          5.03894       -1.61549       -2.02277
H          6.91347       -1.98323        0.52571
H          6.64652       -0.49505       -0.36841
H          6.31072       -0.54776        1.35781
H          5.47519        3.15573        1.55002
H          5.77802        3.39122       -0.16725
H          5.39873        4.77373        0.84796
H          2.22507        4.13737       -1.11965
H          3.49832        5.32101       -0.82832
H          3.83935        3.86686       -1.76015
H          1.82673        4.17157        1.39012
H          3.21840        5.18042        1.73611
H          3.07892        3.59227        2.48797
H          5.04066        2.16371       -2.15632
H          6.74513        1.68751       -1.99130
H          5.48829        0.45402       -2.22712
