111
-148.55726554
P         -1.67128        2.78044        0.01032
P         -0.53987       -0.11867        0.52293
C         -1.67258        2.09750        1.69292
C         -1.24227        0.80417        1.90276
C         -0.51168        4.21335       -0.12728
C          0.64653        3.87558       -1.04215
C         -2.07495        2.86943        2.76395
H         -2.37642        3.89097        2.59947
C         -2.06691        2.33380        4.04041
H         -2.38465        2.93488        4.87670
C         -1.64680        1.03322        4.24517
H         -1.63544        0.61894        5.23985
C         -1.22309        0.26838        3.17313
H         -0.86011       -0.73706        3.31787
Pd        -1.32795        0.95706       -1.35852
Cl        -1.93148        2.20410       -3.12173
Cl        -0.93059       -0.89835       -2.56415
C         -1.41250        5.35343       -0.64415
C         -3.26300        3.60040       -0.45940
H          1.21807        3.02502       -0.66540
H          0.28576        3.60890       -2.03763
H          1.33002        4.72093       -1.15119
H         -1.27444        5.44433       -1.73028
H         -1.08755        6.31791       -0.22559
H         -3.43167        3.33925       -1.51260
C         -2.91608        5.09523       -0.33910
C         -4.42956        3.14070        0.38897
H         -0.16352        4.42338        0.89254
H         -3.15004        5.43384        0.67957
H         -3.56031        5.69171       -1.00316
H         -4.27466        3.38906        1.43929
H         -5.36163        3.61600        0.07494
H         -4.56269        2.05830        0.32482
C         -0.82980       -4.65459        0.72045
C          0.32098       -3.99528        1.22857
C          0.37122       -2.61347        1.14824
C         -0.69008       -1.89298        0.66551
C         -1.85302       -2.51558        0.29593
C         -1.97154       -3.89519        0.34900
O         -0.80751       -6.05666        0.50587
C          1.51918       -4.72025        1.86424
H          1.25905       -2.08116        1.44631
H         -2.66836       -1.90880       -0.06090
C         -3.33465       -4.51364       -0.00419
C          3.73709        1.28490       -0.14903
C          3.15838        0.33168       -1.02581
C          1.85477       -0.06822       -0.78895
C          1.16811        0.37516        0.30928
C          1.75541        1.21856        1.21483
C          3.05372        1.66447        1.03494
O          4.97856        1.89148       -0.47787
C          3.89389       -0.23306       -2.25006
H          1.33267       -0.69933       -1.48737
H          1.17450        1.54444        2.05936
C          3.67936        2.58359        2.09524
C          1.90182       -4.01581        3.18476
C          1.20226       -6.18493        2.21265
C          2.71695       -4.66726        0.90091
C         -4.45447       -3.73939        0.72564
C         -3.56106       -4.41430       -1.52203
C         -3.44462       -5.98327        0.43802
C         -0.32357       -6.40647       -0.78034
H          1.04646       -3.97160        3.85837
H          2.70270       -4.55215        3.69312
H          2.25007       -2.99832        3.01528
H          1.02158       -6.77374        1.31660
H          2.02912       -6.64877        2.74999
H          0.31236       -6.24716        2.83801
H          3.58731       -5.15938        1.33413
H          2.48661       -5.16093       -0.04125
H          2.99142       -3.63683        0.67710
H         -4.27524       -3.72673        1.80037
H         -4.52387       -2.70837        0.38313
H         -5.42464       -4.20435        0.55218
H         -4.53426       -4.81915       -1.79825
H         -3.52150       -3.37754       -1.85470
H         -2.80038       -4.96628       -2.07044
H         -4.44856       -6.37105        0.26692
H         -2.75084       -6.61395       -0.11268
H         -3.21714       -6.08345        1.49871
H         -0.33969       -7.49122       -0.88804
H         -0.94997       -5.95856       -1.54988
H          0.69628       -6.04701       -0.90690
C          4.85728        3.07062       -1.26421
C          3.41149       -1.66977       -2.55687
C          3.60009        0.65400       -3.46954
C          5.41065       -0.31406       -2.00107
C          3.09832        2.27645        3.49448
C          5.20134        2.37102        2.18469
C          3.36718        4.04719        1.74778
H          3.48536       -2.30061       -1.67152
H          2.37899       -1.68444       -2.90237
H          4.01724       -2.12195       -3.34177
H          4.09671        0.27050       -4.36036
H          2.52930        0.69100       -3.66917
H          3.94092        1.67374       -3.30705
H          5.62206       -0.90914       -1.11326
H          5.92261       -0.77250       -2.84678
H          5.84224        0.67218       -1.85111
H          2.04854        2.55741        3.56633
H          3.18677        1.21541        3.72654
H          3.63104        2.83318        4.26511
H          5.69578        2.64605        1.25643
H          5.63547        2.97557        2.98064
H          5.43127        1.32577        2.38855
H          3.76529        4.31512        0.77213
H          3.79837        4.72396        2.48495
H          2.29102        4.21619        1.72444
H          5.38603        2.93788       -2.20790
H          3.80779        3.28947       -1.46406
H          5.30938        3.91017       -0.73643
