111
-148.55596186
P         -2.72971        1.89880       -0.33161
P          0.09508        0.60751        0.23978
C         -1.88252        2.24793        1.23406
C         -0.62324        1.73182        1.45155
C         -3.66597        3.37625       -0.93763
C         -2.93687        4.08503       -2.05811
C         -2.48612        3.02003        2.20618
H         -3.47876        3.40555        2.04122
C         -1.82009        3.27918        3.39179
H         -2.29083        3.88173        4.15139
C         -0.55526        2.76488        3.60432
H         -0.03867        2.96406        4.52878
C          0.04335        1.98358        2.63243
H          1.02142        1.55677        2.78987
Pd        -1.14947        0.89872       -1.68983
Cl        -2.59457        1.14304       -3.38822
Cl         0.46124       -0.09867       -2.89507
C         -5.02852        2.77479       -1.32735
C         -4.10717        0.66886       -0.19352
H         -3.49294        4.95849       -2.40638
H         -1.94650        4.41785       -1.73858
H         -2.79868        3.42243       -2.91305
H         -4.99912        2.49532       -2.38961
H         -5.82201        3.53288       -1.24215
H         -3.94943       -0.05409       -1.00520
C         -5.36169        1.51922       -0.47097
C         -4.10046       -0.02478        1.15163
H         -3.78119        4.04467       -0.07499
H         -5.79327        1.83560        0.48857
H         -6.13827        0.90856       -0.95601
H         -4.93201       -0.72732        1.24347
H         -3.17284       -0.57933        1.30575
H         -4.18693        0.70089        1.96240
C         -1.26236       -3.62267        1.24485
C         -0.73968       -3.33193       -0.04325
C         -0.34845       -2.03208       -0.30990
C         -0.39109       -1.06484        0.65806
C         -0.76774       -1.37115        1.93903
C         -1.17019       -2.65192        2.27797
O         -1.95085       -4.84170        1.47318
C         -0.57728       -4.37159       -1.16381
H         -0.01936       -1.74870       -1.29501
H         -0.75931       -0.58922        2.67863
C         -1.48113       -2.93767        3.75640
C          4.63603        0.84192        0.02451
C          3.85400        1.59179       -0.89144
C          2.47429        1.53601       -0.77809
C          1.87618        0.71483        0.14080
C          2.62517       -0.09218        0.95702
C          4.00874       -0.08047        0.90014
O          6.04205        1.03435        0.08490
C          4.47948        2.45703       -1.99707
H          1.84288        2.12696       -1.41884
H          2.10726       -0.74286        1.64073
C          4.80146       -1.05285        1.78769
C         -0.70628       -5.81470       -0.64703
C         -1.63403       -4.11673       -2.25165
C          0.83077       -4.23692       -1.78538
C         -2.80622       -2.25836        4.14068
C         -1.56932       -4.44404        4.05611
C         -0.34619       -2.36785        4.63615
C         -3.33760       -4.74641        1.19302
H         -0.49516       -6.53523       -1.43685
H         -0.01011       -5.99320        0.17173
H         -1.71041       -6.01360       -0.28006
H         -2.64149       -4.21489       -1.85181
H         -1.53620       -3.11215       -2.66221
H         -1.52734       -4.82589       -3.07198
H          1.00173       -5.01209       -2.53183
H          0.96516       -3.27627       -2.27965
H          1.59976       -4.33184       -1.01923
H         -3.63180       -2.64030        3.54304
H         -3.04279       -2.43229        5.19004
H         -2.75234       -1.18144        3.98374
H         -2.41379       -4.89912        3.54403
H         -0.66484       -4.95472        3.72745
H         -1.69430       -4.62574        5.12331
H         -0.50333       -2.62034        5.68449
H          0.61727       -2.77657        4.33257
H         -0.28751       -1.28273        4.56941
H         -3.80979       -5.71067        1.38208
H         -3.79638       -3.98996        1.82779
H         -3.49013       -4.46860        0.15130
C          6.45000        2.05298        0.98919
C          4.71325        3.87782       -1.46258
C          5.80579        1.85086       -2.49093
C          3.53922        2.53706       -3.22183
C          5.10385       -0.38077        3.13532
C          3.98595       -2.34025        2.05034
C          6.11136       -1.48345        1.10310
H          5.14598        4.51775       -2.23114
H          3.77472        4.32675       -1.13828
H          5.38887        3.87214       -0.61059
H          6.55300        1.83445       -1.70142
H          5.65592        0.82652       -2.83042
H          6.21550        2.42693       -3.32023
H          2.63739        3.10623       -3.00181
H          4.03310        3.03162       -4.05786
H          3.24371        1.54050       -3.54907
H          5.69835        0.51983        3.00185
H          4.18054       -0.09685        3.63990
H          5.65471       -1.05348        3.79222
H          4.59312       -3.08473        2.56478
H          3.11782       -2.14723        2.67896
H          3.64104       -2.77873        1.11417
H          6.64317       -2.22146        1.70308
H          6.77823       -0.63760        0.95529
H          5.90746       -1.92255        0.12707
H          5.58252        2.49790        1.47828
H          7.11413        1.62843        1.74185
H          6.99806        2.82411        0.44812
