105
-153.05955974
Cl         0.32961        3.53332        1.76807
Pd        -0.11592        1.97382        0.20731
P         -0.71835        0.25916       -1.32045
N          0.16140       -1.13936       -1.96397
C          0.25563       -2.46915       -1.56492
C         -0.08848       -2.95802       -0.27439
C          0.22936       -4.29256        0.06324
C          0.08186       -4.75501        1.49494
C         -0.06533       -6.27693        1.63041
C          1.06245       -6.98872        0.87743
C          1.05276       -6.61374       -0.61418
C          0.75819       -5.15882       -0.89701
C          1.01720       -4.67605       -2.17237
C          0.79276       -3.36249       -2.49137
H          1.03937       -3.00042       -3.47455
H          1.42255       -5.34674       -2.91118
H          2.01555       -6.87217       -1.07329
H          2.02639       -6.70521        1.31856
H         -0.08681       -6.57941        2.68699
H          0.96487       -4.42078        2.05285
C         -0.69434       -2.09577        0.77603
C          0.11212       -1.10144        1.38858
C         -0.36728       -0.42703        2.51190
C         -1.61796       -0.69948        3.00210
C         -2.44467       -1.64105        2.39583
C         -3.80327       -1.88849        3.00956
C         -4.72370       -2.82518        2.20596
C         -3.93089       -3.94833        1.52988
C         -2.86661       -3.35868        0.59481
C         -1.98523       -2.34256        1.27726
H         -2.25597       -4.15664        0.15683
H         -4.59926       -4.63069        0.98584
H         -5.25185       -2.24767        1.43792
H         -4.29560       -0.91996        3.16441
H         -1.98091       -0.16902        3.86607
H          0.24480        0.32895        2.96858
N          1.27734       -0.72191        0.72920
P          1.81377        0.89464        0.99926
C          2.91758        1.41280       -0.30925
C          3.15766        2.75466       -0.48600
C          3.92227        3.17781       -1.55790
C          4.44722        2.25842       -2.45686
C          4.18143        0.90870       -2.26626
C          3.41688        0.48681       -1.19374
H          3.19616       -0.55869       -1.05216
H          4.56863        0.19090       -2.96910
C          5.23626        2.71441       -3.63440
H          4.10345        4.22797       -1.71046
H          2.71208        3.46266        0.19536
C          2.62141        0.94134        2.59914
C          2.46383        1.99833        3.46238
C          3.10128        1.98879        4.68801
C          3.90678        0.91933        5.05591
C          4.04488       -0.14606        4.17604
C          3.40485       -0.13254        2.94898
H          3.50086       -0.95979        2.26287
H          4.65360       -0.98792        4.45851
C          4.57280        0.89440        6.38765
H          2.97379        2.81233        5.36969
H          1.83088        2.82046        3.17606
H          1.14008       -0.81716       -0.27621
H          0.39145       -0.93086       -2.92770
C         -0.60659        1.44034       -2.67411
C          0.64582        1.88621       -3.02231
C          0.78998        2.80512       -4.04538
C         -0.32116        3.27687       -4.73066
C         -1.57863        2.82013       -4.35826
C         -1.71990        1.90165       -3.33458
H         -2.69575        1.55347       -3.03907
H         -2.44811        3.19418       -4.87129
C         -0.17107        4.29025       -5.81126
H          1.76842        3.16702       -4.31097
H          1.50623        1.52865       -2.48071
C         -2.44315       -0.20103       -1.17060
C         -2.96532       -1.02621       -2.13796
C         -4.30453       -1.37293       -2.09850
C         -5.12623       -0.89711       -1.08626
C         -4.57993       -0.06320       -0.11948
C         -3.24214        0.28203       -0.16215
H         -2.81928        0.93119        0.58694
H         -5.20859        0.31789        0.66694
C         -6.56550       -1.27733       -1.04887
H         -4.71913       -2.01924       -2.85312
H         -2.32010       -1.39694       -2.91899
Cl        -2.01532        3.05870       -0.31425
H          0.30762       -7.22283       -1.13992
H         -1.03250       -6.58599        1.21435
H          0.98928       -8.07775        1.00743
H         -0.76397       -4.25131        1.97465
H         -3.44153       -4.56143        2.29697
H         -3.35604       -2.87532       -0.25679
H         -3.65233       -2.30063        4.01455
H         -5.51208       -3.24130        2.84886
H          4.58978        2.85902       -4.50111
H          5.74043        3.65976       -3.42921
H          6.00033        1.98341       -3.90249
H          5.50616        0.33089        6.35065
H          4.80917        1.90332        6.72860
H          3.92791        0.42913        7.13436
H         -0.22359        5.30064       -5.40357
H          0.78691        4.18252       -6.32193
H         -0.95826        4.18767       -6.55949
H         -6.68091       -2.36222       -1.04989
H         -7.05689       -0.89130       -0.15476
H         -7.09372       -0.88129       -1.91723
