111
-148.55246375
P         -1.58976        2.74906       -0.32467
P         -0.49876       -0.10916        0.46122
C         -1.73573        2.16591        1.38974
C         -1.32579        0.89005        1.71385
C         -0.36057        4.12789       -0.41957
C          0.83007        3.72396       -1.26253
C         -2.22210        3.00038        2.37602
H         -2.49916        4.01179        2.12837
C         -2.32495        2.54292        3.67839
H         -2.70959        3.19320        4.44706
C         -1.92881        1.25787        3.99586
H         -2.00346        0.90394        5.01091
C         -1.41609        0.43214        3.01167
H         -1.06693       -0.56062        3.24859
Pd        -1.18021        0.82172       -1.54665
Cl        -2.10815        1.83974       -3.30986
Cl        -0.48910       -1.10444       -2.48336
C         -1.17717        5.30075       -0.99927
C         -3.10750        3.63131       -0.91821
H          1.54906        4.54129       -1.35531
H          1.34915        2.86452       -0.83350
H          0.51248        3.44375       -2.26901
H         -0.96828        5.37530       -2.07524
H         -0.83682        6.25426       -0.56817
H         -3.20859        3.37144       -1.97966
C         -2.70639        5.11125       -0.78646
C         -4.35782        3.22978       -0.16478
H         -0.05921        4.33808        0.61508
H         -2.98933        5.47042        0.21237
H         -3.28150        5.72766       -1.49436
H         -5.24033        3.73837       -0.55938
H         -4.52977        2.15308       -0.23117
H         -4.28190        3.48375        0.89252
C         -1.03462       -4.61022        0.89985
C          0.25766       -4.07463        0.66786
C          0.38314       -2.70192        0.53997
C         -0.69574       -1.87198        0.69750
C         -1.92731       -2.37728        1.02333
C         -2.12058       -3.74077        1.17858
O         -1.25134       -6.01085        0.80941
C          1.50730       -4.95306        0.50153
H          1.33266       -2.26105        0.29423
H         -2.74405       -1.68656        1.14580
C         -3.50102       -4.25635        1.61479
C          3.79536        1.38708        0.13905
C          3.29403        0.47626       -0.82544
C          1.98780        0.03974       -0.69542
C          1.21885        0.40448        0.37728
C          1.72827        1.21186        1.35966
C          3.02480        1.69298        1.28998
O          5.04990        2.02103       -0.06623
C          4.11620        0.00300       -2.03373
H          1.52934       -0.56005       -1.46134
H          1.08542        1.48470        2.17776
C          3.55160        2.57693        2.43090
C          2.76523       -4.21148        1.00901
C          1.39374       -6.25055        1.32214
C          1.69629       -5.28133       -0.98745
C         -4.20512       -3.22245        2.52294
C         -4.37222       -4.49347        0.37214
C         -3.37626       -5.55618        2.43060
C         -1.60194       -6.45523       -0.49528
H          3.63165       -4.87247        1.00534
H          3.01339       -3.35758        0.38118
H          2.61979       -3.85564        2.02859
H          1.21335       -6.02534        2.37270
H          0.57562       -6.87353        0.97001
H          2.30835       -6.83899        1.25330
H          2.58424       -5.89330       -1.14364
H          0.83989       -5.82289       -1.38255
H          1.80761       -4.36821       -1.57184
H         -4.47804       -2.32241        1.97417
H         -5.12457       -3.63473        2.93796
H         -3.56184       -2.93558        3.35447
H         -3.92717       -5.23663       -0.28511
H         -5.36523       -4.84385        0.65250
H         -4.48741       -3.57262       -0.19904
H         -2.96151       -6.36274        1.83115
H         -2.72290       -5.40866        3.28987
H         -4.34891       -5.88446        2.79619
H         -2.56209       -6.96981       -0.46013
H         -1.66710       -5.60845       -1.17981
H         -0.85169       -7.15757       -0.85797
C          4.97488        3.24332       -0.79018
C          5.61322       -0.08614       -1.68720
C          3.67317       -1.41089       -2.47591
C          3.89552        0.97183       -3.20556
C          5.06737        2.39032        2.62357
C          3.23062        4.04736        2.12170
C          2.87830        2.19978        3.77054
H          6.02263        0.88922       -1.43737
H          5.77003       -0.74257       -0.83189
H          6.18685       -0.47914       -2.52622
H          4.33246       -1.79715       -3.25282
H          3.70242       -2.10584       -1.63767
H          2.66439       -1.40959       -2.88577
H          4.21284        1.97990       -2.95023
H          4.45554        0.65509       -4.08495
H          2.84032        1.01541       -3.47479
H          5.62234        2.71231        1.74617
H          5.42878        2.96992        3.47265
H          5.30488        1.34220        2.80248
H          3.69408        4.36612        1.19133
H          2.15532        4.19368        2.02255
H          3.58789        4.70071        2.91723
H          3.34246        2.73282        4.60002
H          2.97259        1.13168        3.96465
H          1.82041        2.45852        3.77784
H          5.57734        3.17054       -1.69547
H          3.94169        3.46497       -1.05857
H          5.37405        4.05448       -0.18153
