105
-153.05815129
Cl         2.89761        2.28727        0.02632
Pd         0.77472        1.78825       -0.52814
P         -1.37313        1.21253       -1.24330
N         -1.38567       -0.40198       -0.64984
C         -0.41822       -1.28210       -1.11990
C         -0.05445       -2.34858       -0.26152
C          1.03505       -3.17225       -0.59577
C          1.44504       -4.26284        0.37005
C          2.72746       -5.02554       -0.00721
C          2.85705       -5.19879       -1.52351
C          2.86663       -3.82998       -2.21919
C          1.71727       -2.95388       -1.79611
C          1.32805       -1.91269       -2.63468
C          0.28523       -1.08562       -2.30664
H          0.01002       -0.27056       -2.95013
H          1.86961       -1.75269       -3.55149
H          3.80582       -3.30871       -2.00032
H          3.75708       -5.77642       -1.77797
H          3.60042       -4.47661        0.36317
H          1.55338       -3.81460        1.36515
C         -0.95114       -2.66782        0.88162
C         -1.05125       -1.84409        2.03730
C         -1.87179       -2.27155        3.08107
C         -2.61017       -3.42271        2.98627
C         -2.60675       -4.18548        1.82594
C         -3.51081       -5.39384        1.76670
C         -3.36328       -6.23949        0.49109
C         -3.15845       -5.34815       -0.73731
C         -1.89019       -4.49710       -0.57761
C         -1.79985       -3.79015        0.75676
H         -1.01030       -5.13270       -0.71778
H         -4.02649       -4.68756       -0.85583
H         -4.23320       -6.89723        0.35402
H         -4.54850       -5.05174        1.86085
H         -3.23766       -3.72739        3.80690
H         -1.93464       -1.66683        3.96931
N         -0.46045       -0.59025        2.18023
P          0.82906        0.28070        1.32106
C          2.27798       -0.77311        1.24755
C          2.53131       -1.57955        2.33172
C          3.68243       -2.34692        2.36687
C          4.58298       -2.31529        1.31071
C          4.30794       -1.49670        0.22420
C          3.15821       -0.73003        0.19279
H          2.95275       -0.08624       -0.64655
H          5.00685       -1.45422       -0.59355
C          5.83922       -3.11370        1.35644
H          3.88897       -2.97256        3.21825
H          1.82857       -1.59801        3.15005
C          1.24127        1.61888        2.46314
C          0.35107        2.65272        2.62994
C          0.65205        3.69435        3.48747
C          1.84796        3.70637        4.19125
C          2.73997        2.65958        4.00421
C          2.43468        1.61978        3.14586
H          3.13471        0.81525        2.99507
H          3.67945        2.66748        4.53001
C          2.18735        4.84391        5.09018
H         -0.04050        4.50959        3.61010
H         -0.57402        2.65238        2.08062
H         -0.53576       -0.15620        3.09249
H         -1.30742       -0.33694        0.36285
C         -1.96296        1.17615       -2.93500
C         -2.95661        0.28029       -3.24989
C         -3.43814        0.21570       -4.54573
C         -2.92102        1.04434       -5.53287
C         -1.92314        1.94754       -5.19154
C         -1.44490        2.00885       -3.89690
H         -0.66380        2.69915       -3.62786
H         -1.52297        2.60220       -5.94681
C         -3.45445        0.99324       -6.92234
H         -4.21914       -0.48117       -4.79761
H         -3.34224       -0.36990       -2.48001
C         -2.41040        2.24895       -0.21675
C         -2.56658        1.93270        1.11260
C         -3.32709        2.74976        1.92739
C         -3.92793        3.89263        1.41739
C         -3.76255        4.19103        0.07117
C         -2.99990        3.37332       -0.74302
H         -2.85495        3.60931       -1.78527
H         -4.23182        5.07069       -0.33514
C         -4.76317        4.76264        2.29093
H         -3.45405        2.50700        2.96872
H         -2.06979        1.06783        1.52145
Cl         0.73417        3.39830       -2.09392
H          2.84443       -3.95381       -3.30946
H          2.76315       -6.00068        0.49846
H          2.01033       -5.78955       -1.89525
H          0.62189       -4.97590        0.47620
H         -3.11654       -5.94988       -1.65627
H         -1.83830       -3.74719       -1.37736
H         -3.32630       -6.01226        2.65442
H         -2.50169       -6.91096        0.59628
H          5.72338       -3.99728        1.98575
H          6.12623       -3.45229        0.35980
H          6.66043       -2.51942        1.75923
H          2.68030        5.64222        4.53379
H          1.29168        5.25979        5.55374
H          2.85779        4.52774        5.89053
H         -4.28969        1.68458       -7.04211
H         -2.68687        1.26346       -7.64888
H         -3.80776       -0.00821       -7.17202
H         -4.39850        4.75356        3.31907
H         -4.74995        5.79713        1.94496
H         -5.79979        4.42313        2.29816
