59
-75.80443557
Cl         1.79972        0.21781        2.34288
P          1.63639       -0.02084       -0.86984
P         -1.53694       -0.15039       -0.72546
C          0.62450        0.01640       -2.41705
H          0.39827        1.05925       -2.64939
H          1.22987       -0.37167       -3.24199
C         -0.64502       -0.76600       -2.22177
H         -0.43146       -1.82702       -2.07780
H         -1.31607       -0.68531       -3.08231
C          2.88425       -1.39698       -0.90728
H          2.87240       -1.79265       -1.93007
C          2.78703        1.42683       -0.68916
H          2.73644        1.71389        0.36852
C         -3.10136       -1.09165       -0.41301
H         -3.39074       -0.86701        0.62116
C         -2.32095        1.48502       -1.10962
H         -1.78835        1.90002       -1.97333
C          4.21777       -0.68307       -0.62065
H          4.44213       -0.77417        0.45108
H          5.04484       -1.19205       -1.13850
C          4.16275        0.81751       -1.00514
H          4.36127        0.92938       -2.08011
H          4.95831        1.38393       -0.49716
C         -4.06728       -0.39783       -1.38823
H         -3.94581       -0.85391       -2.38135
H         -5.11185       -0.59369       -1.09987
C         -3.78436        1.13039       -1.47103
H         -4.45421        1.65567       -0.77703
H         -4.04056        1.51828       -2.46790
C          2.57532       -2.50885        0.09007
H          2.42933       -2.06198        1.08223
H          3.45897       -3.15431        0.19170
C          2.43334        2.62411       -1.56514
H          3.27350        3.33242       -1.55655
H          2.35166        2.29106       -2.60768
C         -2.96418       -2.59940       -0.59525
H         -3.96243       -3.03960       -0.72668
H         -2.43640       -2.80007       -1.53593
C         -2.20144        2.41390        0.09485
H         -2.78270        1.98875        0.92453
H         -1.16430        2.41662        0.45574
C          1.36945       -3.34503       -0.29897
H          1.51688       -3.82812       -1.26678
H          0.47878       -2.72489       -0.38310
H          1.15780       -4.12815        0.43269
C          1.16205        3.32946       -1.12472
H          0.91939        4.18050       -1.76517
H          1.25000        3.70092       -0.10190
H          0.31058        2.65094       -1.14523
C         -2.25729       -3.26512        0.57611
H         -1.29597       -2.79341        0.77883
H         -2.07823       -4.32836        0.40123
H         -2.84481       -3.17633        1.49199
C         -2.65348        3.83701       -0.19948
H         -2.55692        4.48571        0.67407
H         -2.06204        4.27920       -1.00348
H         -3.69742        3.86745       -0.51589
Cl        -1.49356       -0.23181        2.42644
Pd         0.12829       -0.08375        0.88392
