105
-153.07159674
Cl         0.00819        1.92243        3.00617
Pd        -0.59927        1.11387        0.98744
P         -1.27969        0.49767       -1.15888
N         -0.97054       -1.06998       -1.88788
C          0.06636       -1.96634       -1.60899
C          0.31914       -2.46353       -0.30239
C          1.34791       -3.40850       -0.11026
C          1.57615       -3.96743        1.27431
C          2.45890       -5.22426        1.31899
C          3.67768       -5.07039        0.40500
C          3.23840       -4.83873       -1.04838
C          2.11448       -3.84336       -1.19485
C          1.82695       -3.36604       -2.46701
C          0.82177       -2.45844       -2.67343
H          0.61489       -2.09775       -3.66587
H          2.41149       -3.71856       -3.29995
H          4.08983       -4.50139       -1.65337
H          4.28047       -4.21885        0.74461
H          2.77080       -5.44664        2.34928
H          2.02711       -3.18254        1.89214
C         -0.61854       -2.17965        0.81017
C         -0.14333       -1.59518        2.01825
C         -1.02213       -1.49983        3.10231
C         -2.32075       -1.92598        2.99908
C         -2.80526       -2.49354        1.82712
C         -4.23900       -2.97095        1.81303
C         -4.73908       -3.47592        0.44852
C         -3.63971       -4.23895       -0.29519
C         -2.41760       -3.33729       -0.51817
C         -1.94874       -2.63695        0.73321
H         -1.58893       -3.92329       -0.93491
H         -4.01426       -4.63694       -1.24896
H         -5.06125       -2.62511       -0.16415
H         -4.88106       -2.15715        2.17344
H         -2.98528       -1.82596        3.84063
H         -0.67347       -1.04554        4.01314
N          1.13801       -1.03534        2.13160
P          1.57337        0.17975        0.93085
C          2.65741       -0.38740       -0.37005
C          2.47235        0.09417       -1.64124
C          3.34797       -0.27122       -2.64704
C          4.42469       -1.10510       -2.37505
C          4.60384       -1.56509       -1.07677
C          3.72479       -1.19931       -0.07301
H          3.86432       -1.54059        0.94039
H          5.43438       -2.21392       -0.85731
C          5.34325       -1.53610       -3.46442
H          3.19569        0.08619       -3.65101
H          1.64004        0.74720       -1.83845
C          2.42964        1.58959        1.64130
C          3.21261        1.44542        2.76113
C          3.87581        2.54358        3.27812
C          3.75731        3.78947        2.67626
C          2.97826        3.90815        1.53311
C          2.31633        2.80946        1.01625
H          1.70636        2.89898        0.13042
H          2.89149        4.86663        1.05054
C          4.48668        4.96761        3.22159
H          4.49127        2.43884        4.15526
H          3.30903        0.47638        3.22304
H          1.32897       -0.59284        3.02125
H         -1.25603       -0.96667       -2.85317
C         -0.54672        1.82910       -2.11246
C         -0.57269        3.10292       -1.59501
C          0.02249        4.14057       -2.28709
C          0.64573        3.90840       -3.50570
C          0.63604        2.62128       -4.02671
C          0.04025        1.58509       -3.33153
H          0.04989        0.58309       -3.72704
H          1.10279        2.43473       -4.97883
C          1.27300        5.02783       -4.26110
H          0.00441        5.13900       -1.88465
H         -1.07302        3.27871       -0.65559
C         -3.06184        0.69929       -1.20630
C         -3.63759        1.50938       -2.15618
C         -5.01172        1.66353       -2.18744
C         -5.81665        1.01336       -1.26185
C         -5.21667        0.19156       -0.31794
C         -3.84298        0.03470       -0.29407
H         -3.37030       -0.59238        0.44284
H         -5.83217       -0.31828        0.40322
C         -7.29750        1.16352       -1.30426
H         -5.46762        2.29485       -2.93089
H         -3.01061        2.02121       -2.86844
Cl        -2.52609        2.26652        1.18145
H          2.92143       -5.78921       -1.49397
H          1.87141       -6.09283        0.99587
H          4.33648       -5.94704        0.48121
H          0.60228       -4.17846        1.73386
H         -3.34201       -5.11491        0.29471
H         -2.65312       -2.57955       -1.27415
H         -4.34005       -3.77041        2.55685
H         -5.63362       -4.10318        0.56876
H          6.34788       -1.72192       -3.08203
H          4.98531       -2.45504       -3.93080
H          5.42004       -0.77272       -4.23992
H          5.47660        5.05301        2.77137
H          3.94448        5.89285        3.02166
H          4.61364        4.88630        4.30200
H          1.66346        5.78903       -3.58415
H          2.10323        4.67317       -4.87350
H          0.54701        5.50448       -4.92114
H         -7.58297        2.14188       -1.69326
H         -7.74599        0.40239       -1.94420
H         -7.73143        1.06474       -0.30826
