171
-217.84258685
P         -1.60432        0.34485       -0.42356
P          1.60899       -0.39334       -0.37988
C         -0.91104        1.26226       -1.79535
C          0.93044       -1.41188       -1.69118
C         -0.11060        0.61747       -2.73065
C          0.48103        1.38380       -3.75284
C          0.21418        2.74143       -3.82331
C         -0.60917        3.35397       -2.90225
C         -1.16376        2.60915       -1.87999
C          1.18195       -2.76226       -1.66072
C          0.60500       -3.59814       -2.59586
C         -0.24197       -3.07180       -3.54764
C         -0.50830       -1.71336       -3.59547
C          0.10905       -0.85507       -2.66516
Cl         1.50634        0.42485        2.85260
Cl        -1.60973       -0.49327        2.78341
C         -1.44245       -1.19297       -4.63036
C          1.36359        0.75328       -4.77183
H         -0.81635        4.40900       -2.97681
H         -1.79904        3.07828       -1.14573
H          1.83206       -3.16655       -0.90197
H          0.80751       -4.65651       -2.57347
H          0.65887        3.32063       -4.61492
H         -0.71070       -3.72069       -4.26823
C         -4.01452       -3.26454       -1.69015
C         -2.93624       -3.44331       -0.83226
C         -2.20688       -2.32066       -0.46166
C         -2.53714       -1.08500       -0.95857
C         -3.59419       -0.92643       -1.82095
C         -4.37096       -2.01760       -2.19100
H         -4.59616       -4.12528       -1.96119
H         -1.37699       -2.39824        0.21922
H         -3.82184        0.05844       -2.19401
C         -4.13402        2.88158        2.37132
C         -4.74747        1.86760        1.64502
C         -3.96362        1.13438        0.76430
C         -2.62565        1.40566        0.62009
C         -2.03801        2.41447        1.34352
C         -2.77941        3.16641        2.24509
H         -4.72242        3.45444        3.06161
H         -4.39750        0.32855        0.19930
H         -0.98253        2.59551        1.23023
C          4.32273       -2.68773        2.45035
C          2.99369       -3.07717        2.33135
C          2.19359       -2.39136        1.42765
C          2.70071       -1.34945        0.69123
C          4.01329       -0.97268        0.82972
C          4.85302       -1.63291        1.71652
H          4.95744       -3.21277        3.13761
H          1.15649       -2.65814        1.31308
H          4.38300       -0.14510        0.25042
C          3.88833        3.30735       -1.62915
C          2.84343        3.43313       -0.72119
C          2.12810        2.28914       -0.39284
C          2.45833        1.07744       -0.94654
C          3.49585        0.96814       -1.83980
C          4.24179        2.08635       -2.19297
H          4.44915        4.18228       -1.89487
H          1.31502        2.33707        0.31105
H          3.73846       -0.00093       -2.24338
Pd        -0.01887       -0.05383        1.26203
C         -2.38869       -5.80785       -1.47593
C         -2.60669       -4.84270       -0.29574
C         -3.77631       -5.33804        0.57328
C         -1.32798       -4.83059        0.56318
H         -2.11580       -6.80164       -1.12138
H         -3.28885       -5.90708       -2.08106
H         -1.58905       -5.44934       -2.12302
H         -3.56697       -6.32578        0.98355
H         -3.95188       -4.65639        1.40539
H         -4.69730       -5.40382       -0.00499
H         -1.08877       -5.83376        0.91567
H         -0.47756       -4.46856       -0.01346
H         -1.44929       -4.19429        1.43946
C         -6.52709       -0.76217       -2.44494
C         -5.59927       -1.80855       -3.09049
C         -6.39824       -3.11297       -3.27742
C         -5.14829       -1.30945       -4.47409
H         -7.43410       -0.62760       -3.03402
H         -6.81900       -1.07278       -1.44187
H         -6.03540        0.20661       -2.36972
H         -6.74097       -3.50290       -2.31909
H         -7.27771       -2.94179       -3.89811
H         -5.79500       -3.87704       -3.76734
H         -6.00715       -1.11153       -5.11524
H         -4.57242       -0.38814       -4.39309
H         -4.52827       -2.05579       -4.96914
C         -6.40500        0.02755        2.07050
C         -6.23974        1.53351        1.78517
C         -6.95796        1.89479        0.47374
C         -6.89477        2.31713        2.93911
H         -7.45367       -0.22765        2.22186
H         -6.03430       -0.57975        1.24587
H         -5.85519       -0.25562        2.96780
H         -8.02019        1.65753        0.53022
H         -6.85894        2.95896        0.26041
H         -6.53493        1.34659       -0.36630
H         -7.94328        2.04004        3.04807
H         -6.39659        2.10784        3.88562
H         -6.85791        3.39104        2.75768
C         -0.96214        3.54102        3.92576
C         -2.06936        4.22539        3.10035
C         -3.04032        4.92420        4.07109
C         -1.44861        5.29023        2.18008
H         -0.44284        4.26120        4.55750
H         -1.38407        2.76836        4.56798
H         -0.22172        3.06672        3.28319
H         -3.83539        5.43681        3.52995
H         -3.49282        4.20779        4.75648
H         -2.51720        5.66870        4.67114
H         -0.94193        6.06186        2.75945
H         -0.71870        4.84561        1.50727
H         -2.21526        5.77043        1.57233
C          2.03255       -5.38355        2.21697
C          2.38432       -4.21834        3.15762
C          1.10985       -3.71366        3.86403
C          3.36117       -4.72950        4.23402
H          1.57211       -6.20506        2.76549
H          1.33767       -5.06402        1.44232
H          2.92676       -5.76401        1.72362
H          1.33475       -2.85202        4.49216
H          0.34681       -3.41188        3.14830
H          0.68000       -4.49048        4.49592
H          2.89815       -5.51150        4.83576
H          4.25888       -5.15218        3.78347
H          3.65666       -3.92466        4.90690
C          7.05714       -1.52185        0.53958
C          6.31618       -1.18526        1.84492
C          7.02850       -1.89131        3.01484
C          6.36969        0.33516        2.09523
H          6.59164       -1.02729       -0.31138
H          8.09840       -1.20347        0.58643
H          7.03864       -2.59518        0.35144
H          7.07646       -2.96828        2.85569
H          8.05191       -1.53079        3.11826
H          6.51338       -1.70251        3.95658
H          7.39648        0.67010        2.24107
H          5.95764        0.89454        1.25641
H          5.79882        0.59791        2.98556
C          2.35910        4.60726        1.44839
C          2.46164        4.77530       -0.08072
C          1.10673        5.22774       -0.64793
C          3.50867        5.86751       -0.37360
H          2.11772        5.55473        1.92986
H          1.58552        3.89218        1.72234
H          3.30288        4.25016        1.85984
H          0.33925        4.47724       -0.46552
H          0.78275        6.16405       -0.19395
H          1.17417        5.37968       -1.72485
H          4.49551        5.56696       -0.02184
H          3.57060        6.07943       -1.44072
H          3.24622        6.79843        0.12896
C          6.19497        3.26470       -3.32989
C          5.44523        1.93216       -3.13608
C          4.96226        1.44147       -4.51132
C          6.42771        0.90746       -2.53890
H          5.54836        4.01790       -3.77969
H          6.56574        3.64783       -2.37929
H          7.05289        3.13278       -3.98915
H          4.44189        0.48798       -4.42956
H          4.28090        2.16473       -4.95798
H          5.80135        1.30601       -5.19356
H          6.75300        1.22000       -1.54677
H          5.96682       -0.07533       -2.44953
H          7.31247        0.80267       -3.16661
H         -1.81686       -0.20222       -4.36919
H          0.78872        0.42970       -5.64012
H         -2.30269       -1.85418       -4.73567
H         -0.95293       -1.12714       -5.60278
H          1.88001       -0.11660       -4.36333
H          2.12022        1.45626       -5.12057
