105
-153.07350978
Cl        -0.02964        1.91020        3.04079
Pd        -0.61972        1.10920        1.01446
P         -1.30474        0.51944       -1.14144
N         -1.03734       -1.06336       -1.85224
C          0.02889       -1.93733       -1.61032
C          0.31448       -2.44660       -0.31582
C          1.35953       -3.37792       -0.15270
C          1.61877       -3.94939        1.22096
C          2.51493       -5.19742        1.23372
C          3.71632       -5.01903        0.30116
C          3.25124       -4.77059       -1.14163
C          2.11322       -3.78708       -1.25592
C          1.79792       -3.29531       -2.51626
C          0.77494       -2.40114       -2.69403
H          0.54454       -2.03216       -3.67814
H          2.37468       -3.62643       -3.36331
H          4.08889       -4.41383       -1.75458
H          4.31716       -4.16720        0.64332
H          2.84673       -5.42999        2.25550
H          2.07243       -3.16667        1.83961
C         -0.60663       -2.18230        0.81399
C         -0.12119       -1.58409        2.01028
C         -0.98865       -1.48537        3.10335
C         -2.28758       -1.91518        3.01558
C         -2.78146       -2.49675        1.85409
C         -4.21464       -2.97652        1.85674
C         -4.71145       -3.55057        0.51784
C         -3.59988       -4.31376       -0.20792
C         -2.40099       -3.39245       -0.47261
C         -1.93245       -2.65401        0.75669
H         -1.56522       -3.97133       -0.88527
H         -3.97194       -4.75385       -1.14400
H         -5.06373       -2.73539       -0.12575
H         -4.85826       -2.14593        2.17349
H         -2.94540       -1.80608        3.86122
H         -0.63370       -1.01924        4.00570
N          1.15536       -1.00898        2.09779
P          1.55961        0.19990        0.87667
C          2.67149       -0.37328       -0.39852
C          3.74048       -1.17037       -0.06868
C          4.64205       -1.54361       -1.04952
C          4.47603       -1.11660       -2.36071
C          3.40793       -0.28205       -2.66237
C          2.51046        0.09138       -1.67917
H          1.68231        0.74152       -1.90088
H          3.28122        0.07163       -3.67122
C          5.44654       -1.51500       -3.41685
H          5.48131       -2.17056       -0.80154
H          3.86551       -1.49174        0.95309
C          2.39526        1.62640        1.57975
C          3.17814        1.50045        2.70173
C          3.82411        2.61107        3.21392
C          3.69919        3.84908        2.59741
C          2.90705        3.95304        1.46195
C          2.26239        2.84174        0.95054
H          1.65029        2.91799        0.06540
H          2.79473        4.91035        0.98232
C          4.36776        5.05129        3.16756
H          4.42885        2.52282        4.10028
H          3.28652        0.53640        3.17122
H          1.35495       -0.55736        2.98087
H         -1.34709       -0.95952       -2.80994
C         -0.51305        1.81234       -2.10170
C         -0.43687        3.08283       -1.58010
C          0.20924        4.07995       -2.28682
C          0.76930        3.81492       -3.52910
C          0.67127        2.52991       -4.04526
C          0.02538        1.53414       -3.33582
H         -0.03683        0.53394       -3.73076
H          1.11131        2.31207       -5.00346
C          1.49649        4.87791       -4.27648
H          0.28281        5.07226       -1.87555
H         -0.89087        3.29157       -0.62411
C         -3.07947        0.77066       -1.22007
C         -3.61293        1.75143       -2.02247
C         -4.98320        1.93211       -2.06939
C         -5.82800        1.12860       -1.31564
C         -5.26940        0.14983       -0.50543
C         -3.89889       -0.03158       -0.46551
H         -3.45646       -0.77537        0.17581
H         -5.91445       -0.45934        0.10414
C         -7.30107        1.34477       -1.33661
H         -5.40513        2.70509       -2.68876
H         -2.95665        2.37645       -2.60584
Cl        -2.69323        1.88856        1.42008
H          2.93881       -5.71808       -1.59670
H          1.93081       -6.06773        0.90919
H          4.38420       -5.89053        0.35362
H          0.65573       -4.17584        1.69576
H         -3.27719       -5.16110        0.40997
H         -2.66151       -2.66011       -1.24507
H         -4.31763       -3.73746        2.63969
H         -5.58727       -4.19639        0.67263
H          4.95649       -1.60186       -4.38768
H          6.24560       -0.77794       -3.50702
H          5.90197       -2.47992       -3.18949
H          3.71662        5.55128        3.88582
H          5.29174        4.78199        3.68117
H          4.62088        5.76903        2.38600
H          2.56028        4.86136       -4.03551
H          1.39295        4.74222       -5.35395
H          1.11078        5.86796       -4.02933
H         -7.59816        2.05639       -0.56512
H         -7.62823        1.73688       -2.30060
H         -7.83833        0.41203       -1.15922
