111
-148.55643681
P         -2.37379        2.49210       -0.10182
P         -0.11906        0.31566        0.43116
C         -1.76276        2.22206        1.57891
C         -0.82448        1.24088        1.81134
C         -2.31630        4.27603       -0.58083
C         -1.24137        4.51005       -1.62005
C         -2.26262        2.96386        2.62970
H         -2.99230        3.73374        2.43704
C         -1.82852        2.70921        3.91927
H         -2.21869        3.28655        4.74149
C         -0.90360        1.70986        4.15394
H         -0.57102        1.50591        5.15843
C         -0.40174        0.97199        3.09676
H          0.31739        0.18522        3.26437
Pd        -1.28614        0.98564       -1.47262
Cl        -2.73572        1.59178       -3.07200
Cl        -0.21710       -0.68298       -2.53433
C         -3.74946        4.55431       -1.07260
C         -4.19456        2.17469       -0.24264
H         -1.20394        5.55782       -1.92772
H         -0.25490        4.23103       -1.24117
H         -1.43107        3.90968       -2.51216
H         -3.77603        4.43369       -2.16435
H         -4.02239        5.60390       -0.88516
H         -4.32696        1.58757       -1.16098
C         -4.77967        3.58733       -0.42352
C         -4.73280        1.41743        0.95324
H         -2.10529        4.83878        0.33789
H         -5.07845        3.97589        0.55970
H         -5.70567        3.54433       -1.01682
H         -4.20322        0.47317        1.09565
H         -4.61257        1.99790        1.86900
H         -5.79697        1.19740        0.84121
C         -1.00826       -4.13458        0.74567
C          0.26929       -3.64656        1.12292
C          0.51287       -2.28857        1.00432
C         -0.47558       -1.42614        0.60957
C         -1.74367       -1.87651        0.35308
C         -2.05193       -3.22418        0.43850
O         -1.23302       -5.53330        0.64292
C          1.39630       -4.56410        1.62294
H          1.48952       -1.88430        1.20651
H         -2.48999       -1.15799        0.06132
C         -3.48944       -3.68075        0.14509
C          4.38300        0.98358        0.02491
C          3.68209        0.21029       -0.93400
C          2.31308        0.07318       -0.78848
C          1.64897        0.60476        0.28515
C          2.33925        1.27315        1.26339
C          3.71107        1.44617        1.18485
O          5.74618        1.31935       -0.19111
C          4.37495       -0.45538       -2.13325
H          1.73216       -0.44458       -1.52986
H          1.78853        1.66673        2.09796
C          4.44552        2.13647        2.34560
C          2.32625       -3.80385        2.59648
C          0.82962       -5.76947        2.39482
C          2.23128       -5.04380        0.42605
C         -4.50279       -2.57212        0.51014
C         -3.62564       -3.98795       -1.35415
C         -3.85914       -4.92000        0.97992
C         -0.92895       -6.07749       -0.63536
H          3.04614       -4.48272        3.05310
H          2.89752       -3.02897        2.08724
H          1.75190       -3.33766        3.39665
H          0.20359       -5.43538        3.22154
H          0.22288       -6.40299        1.75287
H          1.63064       -6.38526        2.80304
H          2.66399       -4.19643       -0.10482
H          3.04622       -5.68958        0.75207
H          1.62339       -5.60132       -0.28216
H         -4.42115       -1.71742       -0.15976
H         -5.52511       -2.94130        0.43159
H         -4.34942       -2.22712        1.53234
H         -3.38844       -3.10676       -1.94999
H         -2.94880       -4.78264       -1.65749
H         -4.64100       -4.29856       -1.59889
H         -3.72630       -4.72000        2.04262
H         -4.89734       -5.20756        0.81581
H         -3.23722       -5.77324        0.72114
H         -0.58209       -5.29329       -1.30958
H         -0.15650       -6.83967       -0.53485
H         -1.81843       -6.54934       -1.05249
C          5.93912        2.53974       -0.89524
C          5.80831       -0.88752       -1.77520
C          3.61456       -1.73098       -2.56373
C          4.39466        0.52421       -3.31629
C          4.49141        3.65063        2.09154
C          3.71243        1.88335        3.68317
C          5.87255        1.58126        2.50659
H          5.80413       -1.55064       -0.91072
H          6.27752       -1.41501       -2.60531
H          6.43292       -0.03074       -1.53514
H          4.17265       -2.27617       -3.32448
H          3.46592       -2.39799       -1.71529
H          2.64045       -1.49613       -2.99005
H          3.38072        0.80839       -3.59702
H          4.93569        1.43366       -3.06648
H          4.87291        0.07588       -4.18672
H          3.48406        4.05719        2.00453
H          4.99518        4.16819        2.90752
H          5.02148        3.88030        1.17041
H          2.74919        2.39025        3.71807
H          3.54613        0.81759        3.83848
H          4.29938        2.25589        4.52241
H          6.48243        1.79408        1.63221
H          5.85048        0.50058        2.64329
H          6.36988        2.02250        3.36999
H          6.48672        2.34724       -1.81765
H          4.97847        2.99909       -1.13148
H          6.52970        3.22377       -0.28600
