111
-148.55468117
P         -2.22546        2.35568        0.95319
P         -0.02980        0.10619        0.57738
C         -1.32907        1.73009        2.39496
C         -0.36237        0.76441        2.22327
C         -2.34279        4.20163        0.98739
C         -1.41608        4.82922       -0.03149
C         -1.60206        2.21769        3.65670
H         -2.36532        2.96821        3.78359
C         -0.89799        1.73607        4.74691
H         -1.11029        2.11475        5.73340
C          0.07783        0.77348        4.57157
H          0.62814        0.40079        5.41976
C          0.34772        0.28690        3.30484
H          1.10732       -0.46347        3.14977
Pd        -1.25219        1.40526       -0.90547
Cl        -2.66938        2.57638       -2.18750
Cl        -0.07676        0.46282       -2.57617
C         -3.84161        4.45524        0.73987
C         -4.02018        1.91018        0.95009
H         -0.37545        4.55230        0.15429
H         -1.66738        4.49723       -1.04004
H         -1.48530        5.91941       -0.01649
H         -3.99905        4.60983       -0.33650
H         -4.15749        5.39257        1.22259
H         -4.24351        1.56617       -0.06874
C         -4.71198        3.25906        1.22211
C         -4.31980        0.82405        1.96142
H         -2.06523        4.50959        2.00380
H         -4.89627        3.35132        2.30128
H         -5.70602        3.28140        0.75013
H         -3.74340       -0.08089        1.75352
H         -4.06106        1.15091        2.97007
H         -5.37974        0.55927        1.96112
C         -1.17014       -4.28975        0.17785
C         -1.33105       -3.63823        1.43018
C         -0.96300       -2.30655        1.52874
C         -0.53674       -1.60640        0.43007
C         -0.52094       -2.19547       -0.80668
C         -0.86189       -3.52503       -0.97795
O         -1.23698       -5.70443        0.09673
C         -1.90339       -4.32092        2.68384
H         -1.00101       -1.80134        2.47789
H         -0.23696       -1.59181       -1.65084
C         -0.89071       -4.07780       -2.41259
C          4.21945        0.92199       -0.82142
C          3.72505       -0.40750       -0.84752
C          2.43284       -0.63463       -0.40625
C          1.67088        0.38315        0.10312
C          2.17740        1.65044        0.22369
C          3.46598        1.94556       -0.19063
O          5.44739        1.23458       -1.46289
C          4.54130       -1.58748       -1.39739
H          1.99301       -1.61326       -0.47778
H          1.53884        2.41531        0.63255
C          4.00047        3.37217        0.00875
C         -2.60465       -5.65073        2.35655
C         -0.77019       -4.57208        3.69216
C         -2.96160       -3.39969        3.33108
C         -1.61045       -5.43423       -2.50407
C         -1.65846       -3.09553       -3.32538
C          0.54995       -4.22333       -2.93045
C          0.01961       -6.32530        0.31119
H         -1.89709       -6.38847        1.98550
H         -3.08467       -6.06995        3.24052
H         -3.36691       -5.50514        1.59194
H         -0.28451       -3.63802        3.97303
H         -1.15297       -5.03746        4.60010
H         -0.00989       -5.22883        3.27371
H         -3.73829       -3.14192        2.61157
H         -3.43842       -3.89157        4.17852
H         -2.52294       -2.47369        3.69918
H         -2.61018       -5.36827       -2.07624
H         -1.70391       -5.76049       -3.53962
H         -1.06701       -6.20591       -1.96407
H         -2.65807       -2.90870       -2.93423
H         -1.14731       -2.13833       -3.41267
H         -1.76125       -3.50013       -4.33185
H          1.12218       -4.91368       -2.31345
H          0.56040       -4.59854       -3.95339
H          1.06454       -3.26320       -2.92069
H          0.38575       -6.09287        1.30985
H         -0.09100       -7.40517        0.21050
H          0.74319       -5.96731       -0.41964
C          5.30566        1.61737       -2.82530
C          4.28633       -1.71913       -2.90673
C          6.04433       -1.39653       -1.12600
C          4.12322       -2.90891       -0.71206
C          3.38572        4.01078        1.27550
C          5.52743        3.37350        0.20382
C          3.61847        4.23039       -1.20695
H          3.22584       -1.87035       -3.10603
H          4.59657       -0.82333       -3.43886
H          4.83303       -2.56464       -3.32343
H          6.61608       -2.26144       -1.46141
H          6.43357       -0.52400       -1.64468
H          6.22755       -1.26087       -0.06065
H          4.78492       -3.72324       -1.00639
H          4.17029       -2.81497        0.37252
H          3.11213       -3.20510       -0.98744
H          2.31967        4.19875        1.15716
H          3.52594        3.36489        2.14188
H          3.85639        4.96935        1.49274
H          5.89547        4.37858        0.40838
H          5.80771        2.73294        1.03934
H          6.04183        3.00937       -0.68176
H          4.04401        3.82821       -2.12315
H          3.97471        5.25358       -1.09050
H          2.53621        4.26145       -1.33146
H          4.25761        1.57402       -3.12471
H          5.68144        2.63106       -2.96279
H          5.89237        0.94914       -3.45546
