171
-217.84479989
P         -1.58828        0.37810       -0.33933
P          1.64637       -0.46493       -0.36596
C         -0.86480        1.28370       -1.70658
C          0.88706       -1.44503       -1.66612
C         -0.10668        0.62364       -2.66643
C          0.49396        1.38010       -3.69010
C          0.28962        2.74981       -3.72950
C         -0.48317        3.38152       -2.77798
C         -1.05445        2.64255       -1.76049
C          1.07409       -2.80582       -1.63637
C          0.43680       -3.61627       -2.55479
C         -0.40307       -3.05356       -3.49204
C         -0.60546       -1.68433       -3.54042
C          0.06503       -0.85489       -2.62027
Cl         1.63352        0.33330        2.81677
Cl        -1.50472       -0.53664        2.86416
C         -1.54088       -1.12636       -4.55566
C          1.31480        0.72211       -4.74306
H         -0.64239        4.44617       -2.82874
H         -1.65356        3.12552       -1.00500
H          1.71946       -3.23860       -0.88931
H          0.58825       -4.68308       -2.53125
H          0.74265        3.32349       -4.52036
H         -0.91895       -3.68181       -4.19860
C         -4.01134       -3.21447       -1.61659
C         -2.99049       -3.39049       -0.69076
C         -2.25543       -2.27335       -0.31587
C         -2.52044       -1.04972       -0.87710
C         -3.51480       -0.89594       -1.81157
C         -4.29126       -1.98280       -2.19592
H         -4.62097       -4.05956       -1.87767
H         -1.47798       -2.34424        0.42473
H         -3.68396        0.08236       -2.22870
C         -4.24124        3.06820        2.17968
C         -4.83132        2.12643        1.34532
C         -3.99458        1.31853        0.58883
C         -2.63109        1.46006        0.65452
C         -2.06501        2.39801        1.48272
C         -2.86232        3.20945        2.28020
H         -4.86597        3.71026        2.77131
H         -4.41380        0.56304       -0.05163
H         -0.99288        2.48025        1.51637
C          4.42056       -2.85565        2.31425
C          3.07154       -3.18982        2.27667
C          2.24790       -2.47374        1.41856
C          2.75380       -1.45604        0.64882
C          4.08625       -1.13280        0.70654
C          4.94955       -1.82637        1.54380
H          5.07287       -3.40406        2.96587
H          1.19545       -2.69651        1.36663
H          4.45386       -0.32096        0.10372
C          3.85614        3.30862       -1.52745
C          2.84966        3.37725       -0.57152
C          2.16341        2.20948       -0.26843
C          2.47147        1.03169       -0.90244
C          3.46874        0.97919       -1.84537
C          4.19253        2.12111       -2.16880
H          4.40289        4.20020       -1.76600
H          1.39764        2.21298        0.48835
H          3.69980        0.03533       -2.31034
Pd         0.02800       -0.06754        1.28276
C         -1.46330       -4.77549        0.79319
C         -2.73067       -4.77520       -0.08330
C         -2.53642       -5.80558       -1.21184
C         -3.93401       -5.17649        0.78723
H         -0.59503       -4.45910        0.21599
H         -1.57412       -4.10742        1.64690
H         -1.26071       -5.77334        1.18186
H         -1.71535       -5.51070       -1.86430
H         -2.30690       -6.79028       -0.80503
H         -3.43225       -5.90105       -1.82387
H         -4.08976       -4.45067        1.58522
H         -4.84811       -5.22478        0.19630
H         -3.77724       -6.15345        1.24410
C         -6.78421       -1.99300       -2.35218
C         -5.48087       -1.83571       -3.15562
C         -5.41448       -2.91894       -4.24987
C         -5.48912       -0.45548       -3.84248
H         -6.84891       -1.23584       -1.57088
H         -7.65655       -1.88893       -2.99712
H         -6.83385       -2.97078       -1.87386
H         -4.47672       -2.85834       -4.80071
H         -5.49114       -3.91992       -3.82785
H         -6.23023       -2.80036       -4.96288
H         -4.56286       -0.28351       -4.38976
H         -6.31251       -0.38225       -4.55283
H         -5.61392        0.34668       -3.11587
C         -7.11436        2.91851        2.14739
C         -6.35087        1.93395        1.24139
C         -6.70781        0.49742        1.66774
C         -6.79334        2.16514       -0.21558
H         -8.19052        2.76943        2.05968
H         -6.84638        2.77663        3.19420
H         -6.90100        3.95115        1.87185
H         -7.78401        0.33207        1.62097
H         -6.22948       -0.23823        1.02206
H         -6.38006        0.30720        2.68950
H         -7.87214        2.04998       -0.31909
H         -6.52724        3.16962       -0.54408
H         -6.31701        1.45566       -0.89090
C         -2.88689        4.06683        4.64484
C         -2.26101        4.23970        3.24715
C         -2.55045        5.65397        2.71649
C         -0.73609        4.06214        3.38580
H         -2.73688        3.05044        5.00849
H         -2.43381        4.75159        5.36153
H         -3.95760        4.26519        4.63258
H         -2.11428        5.79033        1.72692
H         -3.62270        5.83049        2.63638
H         -2.13263        6.41278        3.37788
H         -0.23249        4.25723        2.44108
H         -0.32931        4.75619        4.12103
H         -0.48736        3.05116        3.70863
C          1.25008       -3.75125        3.91169
C          2.46637       -4.30432        3.14166
C          3.48060       -4.84520        4.16781
C          2.02294       -5.46032        2.22877
H          0.82999       -4.50814        4.57362
H          1.53765       -2.89284        4.51832
H          0.45919       -3.42977        3.23582
H          4.33665       -5.30324        3.67296
H          3.84130       -4.04797        4.81755
H          3.02257       -5.60627        4.79946
H          1.56572       -6.26314        2.80686
H          1.29722       -5.12008        1.49204
H          2.87472       -5.87358        1.68893
C          6.55460        0.07381        1.88721
C          6.43313       -1.43292        1.58528
C          7.07139       -1.74072        0.21946
C          7.19983       -2.20791        2.67415
H          6.06445        0.31720        2.82961
H          7.59974        0.37343        1.96230
H          6.09386        0.67684        1.10584
H          6.99692       -2.80351       -0.01002
H          6.57232       -1.19250       -0.57804
H          8.12562       -1.46457        0.20852
H          8.24311       -1.89431        2.70946
H          6.76712       -2.03006        3.65851
H          7.18671       -3.27981        2.47804
C          3.40763        5.84065       -0.23588
C          2.50817        4.66509        0.19120
C          2.70751        4.42262        1.69971
C          1.04379        5.04717       -0.08726
H          3.15205        6.74339        0.31889
H          4.45770        5.62139       -0.04335
H          3.28826        6.06103       -1.29653
H          3.74096        4.14901        1.91109
H          2.47033        5.31761        2.27453
H          2.07216        3.61523        2.06084
H          0.89940        5.25840       -1.14603
H          0.36569        4.24072        0.18663
H          0.75609        5.93509        0.47540
C          4.83044        1.60199       -4.54200
C          5.36098        2.02588       -3.16240
C          6.37216        0.98048       -2.65529
C          6.09351        3.37323       -3.31530
H          4.11648        2.33381       -4.91851
H          5.64249        1.52257       -5.26459
H          4.33343        0.63404       -4.49227
H          7.23438        0.91693       -3.31886
H          6.73065        1.24287       -1.66006
H          5.92215       -0.00990       -2.60151
H          5.42494        4.14262       -3.70107
H          6.49762        3.71040       -2.36089
H          6.92662        3.28297       -4.01231
H         -1.75651       -0.07362       -4.36894
H          0.68495        0.33960       -5.54678
H         -2.48928       -1.66356       -4.53849
H         -1.12588       -1.21514       -5.56060
H          1.88330       -0.11376       -4.33268
H          2.02255        1.42330       -5.18549
