111
-148.54691534
P         -1.88659        2.64635        0.35663
P         -0.42395       -0.15035        0.49394
C         -1.80171        1.75317        1.93704
C         -1.22849        0.49902        1.97066
C         -0.88822        4.19782        0.39046
C          0.20764        4.13910       -0.65241
C         -2.26552        2.32302        3.10569
H         -2.65989        3.32487        3.09013
C         -2.18798        1.62042        4.29575
H         -2.55500        2.06491        5.20648
C         -1.63419        0.35492        4.32018
H         -1.56940       -0.18972        5.24772
C         -1.14096       -0.20306        3.15449
H         -0.66952       -1.17350        3.16044
Pd        -1.27861        1.09642       -1.24732
Cl        -2.54783        2.09768       -2.79835
Cl        -0.51524       -0.51854       -2.62031
C         -1.93894        5.30138        0.14229
C         -3.55069        3.32315       -0.10574
H         -0.21925        4.01787       -1.65024
H          0.80749        5.05240       -0.65624
H          0.88011        3.29544       -0.47815
H         -1.48475        6.11367       -0.44364
H         -2.23480        5.75773        1.09841
H         -3.91127        2.70772       -0.94086
C         -3.20387        4.75078       -0.57652
C         -4.54908        3.28191        1.03136
H         -0.46266        4.27542        1.39972
H         -4.06557        5.41378       -0.40978
H         -3.03313        4.75224       -1.66334
H         -4.24496        3.94923        1.83834
H         -5.54007        3.60461        0.70384
H         -4.64186        2.27462        1.44341
C         -0.80353       -4.64482       -0.13001
C          0.48492       -4.06316        0.00339
C          0.56765       -2.69408        0.19232
C         -0.55934       -1.92485        0.31854
C         -1.80389       -2.49790        0.30884
C         -1.96063       -3.86374        0.13318
O         -0.93597       -5.97750       -0.59775
C          1.79822       -4.86071       -0.06555
H          1.52686       -2.20775        0.22465
H         -2.66281       -1.85864        0.42936
C         -3.38095       -4.44383        0.24619
C          3.85873        1.40321        0.31740
C          3.00319        1.80843        1.37410
C          1.72213        1.28401        1.41743
C          1.26205        0.45879        0.42424
C          2.04075        0.17565       -0.66670
C          3.33748        0.64810       -0.76360
O          5.24112        1.72822        0.34900
C          3.44625        2.78672        2.47368
H          1.06165        1.51689        2.23371
H          1.60230       -0.40213       -1.46086
C          4.16412        0.32716       -2.01828
C          2.46619       -4.62490       -1.43033
C          2.75536       -4.38282        1.04972
C          1.57572       -6.36786        0.14930
C         -4.19257       -4.05657       -1.00124
C         -3.37935       -5.97428        0.40488
C         -4.07320       -3.86313        1.49938
C         -1.04781       -6.05741       -2.00913
H          3.42584       -5.13782       -1.48878
H          1.84237       -4.98843       -2.24400
H          2.64079       -3.56283       -1.59788
H          2.27270       -4.44680        2.02451
H          3.65437       -4.99801        1.07916
H          3.07513       -3.35330        0.89711
H          2.52402       -6.90339        0.18793
H          1.04448       -6.54845        1.08313
H          0.98775       -6.79893       -0.65750
H         -5.21355       -4.43123       -0.93341
H         -4.23903       -2.97401       -1.11512
H         -3.74532       -4.46523       -1.90514
H         -2.75030       -6.27311        1.24264
H         -4.38595       -6.35181        0.58324
H         -2.99912       -6.46348       -0.48859
H         -4.22105       -2.78755        1.41929
H         -5.05401       -4.31491        1.64569
H         -3.47780       -4.05611        2.39133
H         -1.20234       -7.09680       -2.29949
H         -1.88876       -5.45757       -2.35266
H         -0.13920       -5.68504       -2.47822
C          6.04463        0.77880        1.03827
C          4.01494        1.99319        3.65947
C          4.49586        3.78179        1.94561
C          2.24822        3.62751        2.97000
C          4.97767       -0.95374       -1.77921
C          3.24429        0.10229       -3.24007
C          5.10374        1.49507       -2.36816
H          4.86933        1.39172        3.35807
H          4.33728        2.66111        4.45786
H          3.26261        1.31827        4.06703
H          5.41145        3.27581        1.65074
H          4.11443        4.31498        1.07535
H          4.75661        4.51704        2.70647
H          1.50809        3.01751        3.48545
H          2.57771        4.39214        3.67310
H          1.76043        4.13041        2.13620
H          4.32033       -1.78779       -1.53635
H          5.55195       -1.22280       -2.66535
H          5.67401       -0.83056       -0.95371
H          3.83075        0.00400       -4.15319
H          2.65642       -0.80890       -3.13872
H          2.55981        0.94003       -3.37091
H          5.64977        1.29619       -3.28996
H          5.83554        1.66325       -1.58157
H          4.53753        2.41639       -2.50088
H          6.84700        0.43887        0.38353
H          6.49578        1.24454        1.91403
H          5.44194       -0.07500        1.35061
