115
-277.94091719
P         -2.35390       -0.18782        0.43315
P          1.32006       -0.35400        0.46007
C         -2.13072        1.57074       -0.03059
C         -2.19782        1.81741       -1.38683
H         -2.44268        1.01225       -2.06139
C         -1.86446        3.05557       -1.89510
H         -1.84388        3.23666       -2.95833
C         -1.46189        4.06425       -1.04470
C         -1.44818        3.83209        0.31709
H         -1.11004        4.61808        0.97225
C         -1.79004        2.59707        0.81981
H         -1.76133        2.43711        1.87749
C         -3.90952       -0.79141       -0.22745
C         -4.11330       -2.14901       -0.29673
H         -3.33669       -2.82439        0.02524
C         -5.31430       -2.63747       -0.76736
H         -5.49729       -3.69878       -0.81692
C         -6.31346       -1.76965       -1.16628
C         -6.09962       -0.40734       -1.08650
H         -6.89610        0.25743       -1.38163
C         -4.89692        0.08264       -0.61854
H         -4.73281        1.14536       -0.54428
C         -2.02853       -1.04503        2.00872
C         -1.25421       -2.18340        1.87694
H         -0.84048       -2.43567        0.91552
C         -0.85974       -2.92045        2.99344
C         -1.46843       -2.62383        4.20877
H         -1.21132       -3.20071        5.08133
C         -2.26651       -1.50471        4.34085
H         -2.62859       -1.22336        5.31498
C         -2.46903       -0.63692        3.26881
C          1.00958       -0.35372        2.26164
C          0.22204        0.72528        2.60892
H         -0.11225        1.37424        1.81878
C         -0.26282        0.88704        3.91123
C          0.29057        0.07874        4.89996
H         -0.02229        0.20724        5.92265
C          1.09682       -0.99040        4.56507
H          1.40476       -1.68063        5.33226
C          1.36566       -1.30100        3.23296
C         -2.80771        0.80211        3.56419
H         -3.66668        0.83998        4.24264
H         -3.16309        1.26951        2.64242
C         -1.58352        1.57772        4.17688
H         -1.54205        2.61698        3.83802
H         -1.70907        1.65237        5.26243
C          0.43597       -3.69127        2.97114
H          0.44358       -4.39057        2.12801
H          0.48358       -4.32945        3.86033
C          1.68641       -2.74462        2.91889
H          2.47034       -3.10343        3.59581
H          2.14516       -2.80525        1.93676
C          2.35685       -1.77544        0.05339
C          1.79055       -2.93217       -0.44204
C          3.66043       -1.77766        0.50685
C          2.48847       -4.11977       -0.37179
C          4.35091       -2.97124        0.59413
C          3.74156       -4.15903        0.21646
C          2.28523        1.11600        0.04824
C          2.28482        1.68662       -1.20350
C          3.07690        1.64230        1.04296
C          3.07758        2.78776       -1.45992
H          1.68525        1.25884       -1.98933
C          3.87771        2.73467        0.78342
H          3.07573        1.19083        2.02256
C          3.88058        3.31899       -0.46870
H          3.07089        3.26435       -2.42998
H          4.52415        3.13549        1.54690
Pd        -0.51221       -0.64924       -0.98791
Cl        -2.12075       -1.20806       -2.46076
Cl         1.08085       -0.85710       -2.56059
H          5.32024       -3.00708        1.06462
H          4.09670       -0.86900        0.89013
H          2.02241       -5.05281       -0.64868
H          0.77766       -2.93194       -0.80803
C         -1.18203        6.55742       -0.76460
C         -0.83650        5.30514       -1.62325
C          0.69454        5.03582       -1.71065
F         -0.59323        6.46013        0.43549
F         -0.76378        7.65963       -1.40595
F         -2.51434        6.58834       -0.61264
F         -1.29128        5.51774       -2.86096
F          0.87418        4.01128       -2.55590
F          1.32306        6.13083       -2.16197
F          1.14481        4.68969       -0.49632
C         -7.50791       -3.50261       -2.55188
C         -7.66452       -2.28712       -1.59052
C         -8.47591       -2.64353       -0.31163
F         -6.98997       -4.54197       -1.88271
F         -8.70894       -3.82132       -3.05853
F         -6.67403       -3.13575       -3.53655
F         -8.33406       -1.33544       -2.24667
F         -7.78521       -3.53466        0.41462
F         -8.63228       -1.51207        0.39180
F         -9.67084       -3.14129       -0.66268
C          5.06211        5.37715        0.41782
C          4.83945        4.43553       -0.80406
C          6.16864        3.79269       -1.29398
F          5.72010        4.71734        1.38121
F          5.76410        6.45116        0.02311
F          3.85873        5.75633        0.87464
F          4.35504        5.17571       -1.80524
F          6.62640        2.95558       -0.35088
F          5.89083        3.10530       -2.41218
F          7.06649        4.75565       -1.55106
C          5.75925       -5.53078        0.91785
C          4.21217       -5.48684        0.75778
C          3.45703       -5.69054        2.11099
F          6.14226       -4.65432        1.85645
F          6.13001       -6.77480        1.25858
F          6.29988       -5.19453       -0.26270
F          3.85365       -6.47362       -0.06717
F          3.83999       -6.84357        2.67523
F          3.71438       -4.65321        2.91830
F          2.14461       -5.71363        1.84018
