64
-97.20901257
Cl        -1.54382       -1.33652       -2.58265
Cl         1.45308       -2.47421       -2.41803
P          1.94882       -0.62627        0.25186
C          2.30875       -2.23016        1.09924
C          3.64488       -0.18929       -0.34147
P         -1.24784       -0.04818        0.38515
C          1.31321        0.65883        1.38345
C         -0.11268        0.89773        1.47076
C         -0.32722        2.01366        2.38134
C          0.97526        2.47592        2.82944
C          1.99115        1.63363        2.22179
H         -1.28961        2.45794        2.63937
H          1.15839        3.30312        3.51866
Pd         0.18503       -1.10675       -1.17363
H          3.07141        1.71515        2.35813
C         -4.73497        2.66051       -0.73095
C         -4.42483        2.42966        0.59470
C         -3.37918        1.58428        0.92098
C         -2.64718        0.98180       -0.07726
C         -2.97122        1.19153       -1.39808
C         -4.01301        2.03714       -1.72914
H         -5.54845        3.31981       -0.98665
H         -4.99559        2.90640        1.37466
H         -3.13477        1.38428        1.95199
H         -2.42330        0.67106       -2.16454
H         -4.26393        2.20352       -2.76390
C         -2.77676       -3.79311        2.45054
C         -2.25577       -2.75774        3.20257
C         -1.79490       -1.61428        2.57488
C         -1.85876       -1.51856        1.20429
C         -2.37674       -2.54566        0.45077
C         -2.83871       -3.68964        1.07438
H         -3.13561       -4.68441        2.93896
H         -2.20764       -2.83956        4.27603
H         -1.38531       -0.79595        3.14540
H         -2.39966       -2.44730       -0.62295
H         -3.24230       -4.49805        0.48716
C          3.75324       -0.35453       -1.84244
H          3.83040        0.85221       -0.04692
C          4.54387       -1.16277        0.44652
H          4.87796       -0.69022        1.38192
C          3.79500       -2.48379        0.77513
H          5.45910       -1.36742       -0.12811
C          2.01582       -2.11609        2.57957
H          1.66544       -2.99039        0.63527
H          4.27284       -3.00084        1.61972
H          3.87898       -3.17149       -0.07900
H          2.62478       -1.33032        3.03115
H          0.96858       -1.86286        2.75868
H          2.23249       -3.04918        3.10511
H          4.73688       -0.05355       -2.21036
H          3.60328       -1.39848       -2.12243
H          2.99816        0.23241       -2.36923
Fe         0.84772        2.51283        0.76483
C          0.40333        4.36928        0.01735
C         -0.47142        3.36056       -0.55274
C          0.34493        2.37911       -1.24174
C          1.73367        2.76003       -1.07337
C          1.77072        3.97769       -0.28096
H          0.09098        5.25106        0.58157
H         -1.56222        3.36287       -0.50769
H         -0.02664        1.53435       -1.82420
H          2.59787        2.26415       -1.51776
H          2.67005        4.53325       -0.00397
