105
-153.06086932
Cl         0.50304        3.57153        1.64189
Pd        -0.14893        1.89090        0.28645
P         -0.77066        0.24884       -1.30903
N          0.05740       -1.16791       -1.98186
C          0.15048       -2.49911       -1.58776
C         -0.14350       -2.97721       -0.28240
C          0.20726       -4.30012        0.06574
C          0.12605       -4.72304        1.51568
C          0.96353       -5.96835        1.84174
C          0.69916       -7.07557        0.81725
C          1.06403       -6.61044       -0.60202
C          0.69795       -5.17685       -0.90444
C          0.89258       -4.71136       -2.19828
C          0.64721       -3.40310       -2.52633
H          0.85310       -3.05243       -3.52288
H          1.27735       -5.38853       -2.94218
H          2.14244       -6.73096       -0.76075
H          1.24710       -7.99064        1.08291
H          2.02842       -5.70446        1.82499
H          0.44273       -3.88224        2.14604
C         -0.72307       -2.11024        0.77775
C          0.11669       -1.14593        1.39408
C         -0.32753       -0.48749        2.54132
C         -1.57709       -0.74260        3.04435
C         -2.43439       -1.64928        2.42702
C         -3.79826       -1.87349        3.02457
C         -4.41140       -3.22045        2.61549
C         -4.36046       -3.38817        1.09401
C         -2.91791       -3.31303        0.56283
C         -2.01503       -2.33611        1.28436
H         -2.46908       -4.31035        0.60079
H         -4.96156       -2.59810        0.63024
H         -5.44156       -3.31404        2.98761
H         -4.45734       -1.05501        2.71183
H         -1.91678       -0.22012        3.92243
H          0.30910        0.24338        3.00524
N          1.27052       -0.77362        0.70873
P          1.82705        0.83720        0.98053
C          2.90647        1.36472       -0.34217
C          3.11654        2.70945       -0.53367
C          3.86503        3.13857       -1.61425
C          4.39199        2.22232       -2.51511
C          4.17074        0.86805       -2.30013
C          3.42272        0.44020       -1.21814
H          3.22823       -0.60847       -1.06104
H          4.58098        0.15086       -2.99037
C          5.20354        2.68215       -3.67579
H          4.03189        4.19033       -1.77201
H          2.65598        3.41358        0.14160
C          2.64825        0.87923        2.57277
C          2.54392        1.96318        3.41020
C          3.18792        1.95435        4.63252
C          3.93624        0.85331        5.02759
C          4.03535       -0.23084        4.16560
C          3.38908       -0.21808        2.94186
H          3.44901       -1.06218        2.27246
H          4.62085       -1.08549        4.45855
C          4.65178        0.84907        6.33368
H          3.11241        2.80446        5.28880
H          1.95047        2.80751        3.10397
H          1.10650       -0.85982       -0.29405
H          0.24293       -0.96539       -2.95640
C         -0.63660        1.43792       -2.65286
C         -1.73643        1.89783       -3.33624
C         -1.57542        2.81823       -4.35533
C         -0.31125        3.27724       -4.70128
C          0.78613        2.80464       -3.99490
C          0.62170        1.88408       -2.97637
H          1.47134        1.52267       -2.42096
H          1.76982        3.16643       -4.24058
C         -0.14034        4.29333       -5.77620
H         -2.43467        3.19191       -4.88556
H         -2.71760        1.54707       -3.06245
C         -2.50929       -0.14977       -1.14117
C         -3.06452       -0.97615       -2.08883
C         -4.41846       -1.25945       -2.04864
C         -5.22240       -0.71818       -1.05480
C         -4.64321        0.11688       -0.10899
C         -3.29059        0.39881       -0.15206
H         -2.84589        1.05775        0.57524
H         -5.26052        0.55289        0.65769
C         -6.68432       -0.99998       -1.02512
H         -4.85882       -1.90163       -2.79202
H         -2.43421       -1.39341       -2.85841
Cl        -1.86217        3.17361       -0.40905
H          0.58559       -7.25838       -1.34756
H          0.76231       -6.32248        2.86272
H         -0.36291       -7.34989        0.84933
H         -0.91816       -4.91086        1.78480
H         -4.83811       -4.33066        0.79162
H         -2.92293       -3.05087       -0.50207
H         -3.73144       -1.79852        4.11746
H         -3.84926       -4.03480        3.08979
H          5.09420        2.00583       -4.52478
H          4.89441        3.67576       -4.00345
H          6.26174        2.72754       -3.41497
H          4.67900       -0.15329        6.76338
H          5.68029        1.19185        6.21280
H          4.16127        1.50450        7.05469
H          0.82754        4.18718       -6.26821
H         -0.91267        4.19247       -6.53999
H         -0.20112        5.30265       -5.36700
H         -7.22818       -0.28806       -1.64737
H         -6.89907       -2.00360       -1.39503
H         -7.07908       -0.92994       -0.01049
