105
-153.06106020
Cl         0.19095        3.47846        1.81769
Pd        -0.16442        1.94144        0.21806
P         -0.70646        0.22864       -1.33453
N          0.17907       -1.18783       -1.92869
C          0.26577       -2.50728       -1.49426
C         -0.08222       -2.96098       -0.19188
C          0.22704       -4.28855        0.17981
C          0.07553       -4.71351        1.62272
C         -0.08135       -6.23050        1.79697
C          1.04211       -6.96853        1.06306
C          1.03549       -6.63163       -0.43762
C          0.75095       -5.18240       -0.75755
C          1.01420       -4.73384       -2.04443
C          0.79838       -3.42742       -2.39687
H          1.04786       -3.09227       -3.38883
H          1.41574       -5.42569       -2.76561
H          1.99662       -6.90826       -0.88952
H          2.00769       -6.68015        1.49739
H         -0.10506       -6.50569        2.86094
H          0.96021       -4.37070        2.17273
C         -0.68338       -2.06963        0.83691
C          0.13040       -1.06868        1.42968
C         -0.34304       -0.37156        2.54190
C         -1.59749       -0.62186        3.03415
C         -2.43288       -1.56525        2.44296
C         -3.79678       -1.78357        3.05568
C         -4.72446       -2.72494        2.26649
C         -3.94213       -3.87422        1.62302
C         -2.86384       -3.32161        0.68132
C         -1.97715       -2.29504        1.34111
H         -2.25769       -4.13786        0.27171
H         -4.61605       -4.56053        1.09091
H         -5.23796       -2.15735        1.48128
H         -4.27797       -0.80617        3.18837
H         -1.95687       -0.07138        3.88702
H          0.27525        0.38741        2.98512
N          1.29149       -0.70000        0.75630
P          1.81316        0.92911        0.98484
C          2.89713        1.43242       -0.34468
C          3.39919        0.49325       -1.21353
C          4.14984        0.90045       -2.30147
C          4.38849        2.24943       -2.52964
C          3.87873        3.18059       -1.63420
C          3.12827        2.77229       -0.54649
H          2.69256        3.49004        0.13108
H          4.06257        4.22820       -1.80056
C          5.20172        2.68781       -3.69740
H          4.54804        0.17131       -2.98623
H          3.19322       -0.55152       -1.04654
C          2.64528        1.01534        2.57076
C          3.48831       -0.01843        2.90253
C          4.15317       -0.00109        4.11631
C          3.97083        1.04917        5.00614
C          3.11990        2.08657        4.64887
C          2.45769        2.06533        3.43660
H          1.78372        2.85844        3.16247
H          2.97841        2.91055        5.32725
C          4.70470        1.08079        6.30162
H          4.81837       -0.80567        4.37941
H          3.61485       -0.83735        2.21131
H          1.14947       -0.82043       -0.24594
H          0.41228       -1.00702       -2.89726
C         -0.58920        1.36720       -2.72343
C         -1.69192        1.75205       -3.44740
C         -1.54730        2.63600       -4.50067
C         -0.29791        3.14320       -4.83243
C          0.80509        2.73266       -4.09665
C          0.65667        1.84875       -3.04386
H          1.50940        1.54056       -2.46226
H          1.78068        3.11180       -4.34847
C         -0.13932        4.08057       -5.97851
H         -2.40798        2.94158       -5.07074
H         -2.66314        1.36960       -3.18068
C         -2.43271       -0.22665       -1.18087
C         -2.94099       -1.10352       -2.10944
C         -4.28061       -1.44858       -2.07069
C         -5.11686       -0.91868       -1.09804
C         -4.58387       -0.03530       -0.16835
C         -3.24623        0.31048       -0.21186
H         -2.83647        1.00359        0.50422
H         -5.22312        0.38452        0.58930
C         -6.55405       -1.30605       -1.05438
H         -4.68387       -2.13671       -2.79383
H         -2.28442       -1.51616       -2.85932
Cl        -1.92935        3.09794       -0.55680
H          0.28635       -7.24880       -0.94803
H         -1.05035       -6.54398        1.38854
H          0.96180       -8.05339        1.22071
H         -0.76749       -4.19247        2.08869
H         -3.46611       -4.47519        2.40792
H         -3.34132       -2.85851       -0.18785
H         -3.65543       -2.17711        4.06948
H         -5.52377       -3.11500        2.91223
H          6.26046        2.73004       -3.43831
H          5.08717        2.00048       -4.53681
H          4.89848        3.67869       -4.03853
H          4.14712        1.63617        7.05708
H          4.86797        0.07297        6.68596
H          5.67843        1.55807        6.18346
H          0.01552        3.53256       -6.90891
H         -1.02425        4.70691       -6.09938
H          0.71561        4.74191       -5.83080
H         -6.66213       -2.37603       -0.87062
H         -7.08601       -0.77592       -0.26326
H         -7.04719       -1.07513       -1.99962
