105
-153.06564546
Cl         0.16219        2.82486        2.69730
Pd        -0.21617        1.75503        0.75321
P         -0.70282        0.51084       -1.19947
N          0.43175       -0.78091       -1.58204
C          0.49752       -2.16901       -1.38175
C         -0.03400       -2.83840       -0.24657
C          0.26162       -4.20340       -0.04406
C         -0.12535       -4.85903        1.26129
C          0.71539       -6.10170        1.58627
C          0.72807       -7.05892        0.39076
C          1.32401       -6.38133       -0.85507
C          0.98532       -4.91615       -1.00362
C          1.46476       -4.24790       -2.12318
C          1.24938       -2.90557       -2.29548
H          1.66129       -2.39553       -3.14921
H          2.03994       -4.79676       -2.84975
H          2.41617       -6.47943       -0.83585
H          1.27578       -7.97983        0.63566
H          1.74299       -5.79438        1.81747
H         -0.04271       -4.12397        2.07181
C         -0.70926       -2.08031        0.83489
C          0.07166       -1.18840        1.61137
C         -0.51782       -0.54416        2.69822
C         -1.83536       -0.76124        3.00873
C         -2.62191       -1.62989        2.25947
C         -4.05598       -1.84000        2.69258
C         -4.88873       -2.78651        1.80497
C         -4.02002       -3.87679        1.16777
C         -2.90198       -3.22850        0.34228
C         -2.05744       -2.29507        1.16822
H         -2.28160       -3.98380       -0.15229
H         -4.62302       -4.56020        0.55340
H         -5.37449       -2.20841        1.00952
H         -4.54412       -0.85933        2.75704
H         -2.27850       -0.24990        3.84641
H          0.07260        0.14710        3.27266
N          1.38933       -0.92491        1.23271
P          1.87614        0.75826        1.08051
C          2.71234        1.01958       -0.48178
C          2.38066        2.11368       -1.24551
C          2.88043        2.23064       -2.52861
C          3.71339        1.25333       -3.05433
C          4.04648        0.16242       -2.26310
C          3.55259        0.04912       -0.97593
H          3.78944       -0.81063       -0.36905
H          4.68497       -0.60521       -2.66617
C          4.19849        1.34931       -4.45873
H          2.60285        3.07200       -3.14044
H          1.71001        2.86052       -0.85087
C          2.82649        1.34663        2.47247
C          2.94793        0.54052        3.57805
C          3.65994        0.98624        4.67736
C          4.25648        2.24039        4.66898
C          4.11309        3.04201        3.54377
C          3.40091        2.59430        2.44551
H          3.28237        3.21466        1.57115
H          4.55796        4.02236        3.53516
C          4.99742        2.73533        5.86212
H          3.75291        0.36303        5.55027
H          2.48516       -0.43350        3.57225
H          1.67149       -1.35579        0.35934
H          1.28589       -0.30359       -1.84636
C         -0.54318        1.67052       -2.56527
C         -0.89526        2.99401       -2.45421
C         -0.71980        3.84972       -3.52425
C         -0.20084        3.38310       -4.72421
C          0.14275        2.04212       -4.82452
C         -0.03303        1.19001       -3.74882
H          0.23910        0.14956       -3.82371
H          0.55664        1.67082       -5.74641
C          0.02396        4.31065       -5.86713
H         -0.98411        4.88939       -3.43282
H         -1.31081        3.35256       -1.52891
C         -2.36589       -0.14216       -1.32209
C         -3.40277        0.30215       -0.53729
C         -4.67987       -0.18523       -0.73948
C         -4.93363       -1.10695       -1.74681
C         -3.87796       -1.53486       -2.54045
C         -2.59794       -1.05254       -2.32655
H         -1.77317       -1.38188       -2.93906
H         -4.06225       -2.25398       -3.32012
C         -6.30146       -1.65740       -1.95417
H         -5.49128        0.15879       -0.12116
H         -3.21729        1.05563        0.20792
Cl        -2.09923        2.93029        0.42237
H          1.00118       -6.90719       -1.76264
H          0.34498       -6.60484        2.49069
H         -0.29962       -7.37829        0.17587
H         -1.18260       -5.14163        1.22556
H         -3.57681       -4.49605        1.95740
H         -3.34821       -2.65395       -0.47308
H         -4.04390       -2.22425        3.71971
H         -5.71170       -3.23436        2.37930
H          4.27756        2.38944       -4.77804
H          5.18356        0.89341       -4.56722
H          3.51426        0.84028       -5.13908
H          5.79528        3.42108        5.57365
H          4.32753        3.26470        6.54100
H          5.45284        1.91118        6.41294
H         -0.08807        3.79381       -6.82127
H         -0.69015        5.13517       -5.85184
H          1.02850        4.73437       -5.82958
H         -6.55797       -1.67621       -3.01430
H         -6.37043       -2.67720       -1.57273
H         -7.05347       -1.05601       -1.44162
