111
-148.55455852
P         -2.50286        2.14892        0.99267
P          0.09532        0.32896        0.53119
C         -1.43756        1.69311        2.39078
C         -0.29690        0.94805        2.17788
C         -3.17484        3.86403        1.17591
C         -2.47543        4.83988        0.25510
C         -1.77241        2.08370        3.67161
H         -2.67605        2.64681        3.83816
C         -0.95668        1.73622        4.73472
H         -1.21839        2.04156        5.73470
C          0.19010        0.99733        4.51649
H          0.82406        0.72501        5.34420
C          0.51872        0.59831        3.23329
H          1.40130        0.00636        3.04597
Pd        -1.30281        1.50095       -0.87164
Cl        -2.89125        2.58255       -2.03625
Cl        -0.08033        0.85141       -2.64073
C         -4.67709        3.67183        0.89711
C         -4.07840        1.18226        0.92106
H         -2.87331        5.85100        0.36844
H         -1.40155        4.87281        0.45394
H         -2.60558        4.55117       -0.78849
H         -4.86267        3.85206       -0.17076
H         -5.26769        4.43077        1.43254
H         -4.18818        0.85715       -0.12225
C         -5.14720        2.23562        1.26796
C         -4.03261       -0.00904        1.85334
H         -3.01737        4.14831        2.22404
H         -5.35664        2.18558        2.34535
H         -6.09886        1.99341        0.77094
H         -4.96798       -0.57296        1.82835
H         -3.22001       -0.68805        1.58520
H         -3.86494        0.31087        2.88346
C         -1.13319       -4.02901        0.03909
C         -1.17710       -3.43712        1.33013
C         -0.78959       -2.11343        1.45791
C         -0.45645       -1.36602        0.35876
C         -0.54759       -1.89568       -0.90086
C         -0.91881       -3.21272       -1.10278
O         -1.21644       -5.43810       -0.10195
C         -1.63590       -4.17855        2.59706
H         -0.73216       -1.65361        2.42909
H         -0.31496       -1.25752       -1.73609
C         -1.07935       -3.69566       -2.55345
C          4.44444        0.74465       -0.74198
C          3.85864       -0.54206       -0.63137
C          2.53327       -0.62507       -0.24125
C          1.82080        0.49551        0.09661
C          2.40985        1.73215        0.08753
C          3.73432        1.88709       -0.29013
O          5.72543        0.89135       -1.33776
C          4.61630       -1.83588       -0.96855
H          2.02923       -1.57516       -0.21473
H          1.81085        2.58201        0.36666
C          4.36405        3.28823       -0.24499
C         -2.36675       -5.49324        2.27340
C         -0.41644       -4.47398        3.48563
C         -2.62967       -3.29211        3.38000
C          0.30866       -3.82533       -3.20283
C         -1.81958       -5.04099       -2.64482
C         -1.91386       -2.66465       -3.34616
C          0.05069       -6.07070       -0.03126
H         -2.76640       -5.95344        3.17676
H         -3.19436       -5.31403        1.58794
H         -1.69718       -6.21189        1.80677
H         -0.71607       -4.98344        4.40113
H          0.30205       -5.10760        2.96908
H          0.09374       -3.55289        3.76585
H         -3.01499       -3.81876        4.25268
H         -2.16329       -2.37461        3.73504
H         -3.47743       -3.01944        2.75229
H          0.22491       -4.15063       -4.23939
H          0.83297       -2.87031       -3.19272
H          0.92554       -4.54844       -2.67250
H         -2.77791       -4.98784       -2.12943
H         -2.00572       -5.31740       -3.68236
H         -1.24055       -5.84123       -2.19013
H         -2.10937       -3.01850       -4.35798
H         -2.87299       -2.49057       -2.85938
H         -1.40196       -1.70765       -3.43156
H          0.70350       -5.68944       -0.81496
H          0.51267       -5.87532        0.93511
H         -0.07646       -7.14588       -0.15906
C          5.69043        1.08744       -2.74595
C          4.43599       -2.15577       -2.46031
C          6.11175       -1.70675       -0.62773
C          4.06593       -3.02284       -0.14400
C          3.72494        4.13787        0.87705
C          5.87183        3.21177        0.05672
C          4.12661        3.99391       -1.58884
H          4.95029       -3.07871       -2.72697
H          3.38041       -2.27491       -2.70305
H          4.83017       -1.35871       -3.08573
H          6.63772       -2.64348       -0.81040
H          6.59099       -0.93803       -1.22869
H          6.24461       -1.44179        0.42067
H          3.05459       -3.29100       -0.44672
H          4.68499       -3.90910       -0.28148
H          4.05471       -2.78444        0.91924
H          4.25472        5.08278        0.99592
H          2.68611        4.38014        0.65808
H          3.76163        3.61144        1.83045
H          6.30341        4.20785        0.15191
H          6.04996        2.67439        0.98755
H          6.40989        2.69540       -0.73411
H          3.06003        4.07949       -1.79544
H          4.57778        3.44177       -2.40959
H          4.55171        4.99724       -1.58397
H          6.25379        0.29574       -3.23954
H          4.66045        1.08047       -3.10505
H          6.15612        2.04086       -2.99465
