59
-75.79742961
Cl         1.46470        1.02344        2.27244
P          1.58961       -0.03027       -0.77193
P         -1.58775       -0.16708       -0.86196
C          0.66977        0.50556       -2.28033
H          0.44767        1.57029       -2.17255
H          1.32704        0.39287       -3.14788
C         -0.59518       -0.29736       -2.41865
H         -0.36743       -1.34876       -2.59873
H         -1.21103        0.04228       -3.25717
C          2.20631       -1.76253       -1.01178
H          1.72576       -2.11182       -1.93449
C          3.22329        0.82269       -0.61452
H          3.47522        0.80721        0.45294
C         -2.56184       -1.66799       -0.35700
H         -2.08450       -2.07802        0.54200
C         -2.96859        1.05232       -1.08641
H         -2.90596        1.41700       -2.11942
C          3.72756       -1.60740       -1.23586
H          4.26666       -2.05098       -0.39029
H          4.04552       -2.19527       -2.10982
C          4.15416       -0.12129       -1.39558
H          4.12433        0.15992       -2.45788
H          5.19918        0.02579       -1.08159
C         -3.93946       -1.06197       -0.01940
H         -4.72622       -1.81851       -0.15536
H         -3.97295       -0.78864        1.04588
C         -4.23394        0.19642       -0.87775
H         -5.02084        0.80672       -0.41113
H         -4.64098       -0.11538       -1.85094
C          1.81777       -2.65594        0.16636
H          2.09047       -3.69540       -0.06397
H          0.72323       -2.65637        0.26019
C          3.20772        2.25845       -1.12501
H          4.24167        2.62130       -1.20869
H          2.81601        2.26822       -2.15021
C         -2.62431       -2.74083       -1.44818
H         -3.53647       -3.33812       -1.31054
H         -2.75159       -2.24829       -2.42101
C         -2.86466        2.22871       -0.12228
H         -3.80500        2.79710       -0.14174
H         -2.78508        1.83894        0.90052
C          2.43155       -2.24881        1.50001
H          2.03561       -2.84153        2.32791
H          2.23129       -1.20192        1.72698
H          3.51491       -2.37394        1.50894
C          2.40133        3.19119       -0.23605
H          2.82076        3.23670        0.77076
H          1.37369        2.84437       -0.13241
H          2.36921        4.21042       -0.62755
C         -1.41913       -3.67004       -1.46255
H         -0.48776       -3.12474       -1.60613
H         -1.48607       -4.41460       -2.25915
H         -1.32794       -4.21007       -0.51805
C         -1.69931        3.15324       -0.43257
H         -1.79337        3.58903       -1.42907
H         -1.62429        3.97549        0.28262
H         -0.75467        2.61206       -0.40941
Cl        -1.70443        0.18668        2.35464
Pd        -0.05958        0.22388        0.83254
