105
-153.07161777
Cl         0.43130        3.08600        2.51432
Pd        -0.17629        1.78709        0.77821
P         -0.74940        0.51798       -1.14164
N          0.37144       -0.74983       -1.62401
C          0.52568       -2.12487       -1.40551
C         -0.00115       -2.82855       -0.28995
C          0.36829       -4.17368       -0.07735
C         -0.03255       -4.85615        1.20968
C          0.86716       -6.04734        1.56805
C          0.98988       -6.99673        0.37246
C          1.59607       -6.27860       -0.84539
C          1.16983       -4.83819       -1.00891
C          1.64362       -4.14020       -2.11244
C          1.34793       -2.81461       -2.29510
H          1.75278       -2.28085       -3.13761
H          2.27631       -4.65111       -2.81861
H          2.69033       -6.30563       -0.77703
H          1.58221       -7.88334        0.63918
H          1.86324       -5.67948        1.84444
H         -0.02820       -4.12076        2.02407
C         -0.74937       -2.11318        0.77055
C         -0.02937       -1.21181        1.59025
C         -0.69486       -0.56638        2.63146
C         -2.02067       -0.81787        2.87449
C         -2.73987       -1.72303        2.10079
C         -4.18215       -1.98623        2.47308
C         -4.93681       -2.97374        1.56046
C         -3.99857       -4.03169        0.96865
C         -2.87259       -3.34481        0.18601
C         -2.10318       -2.37349        1.04093
H         -2.20004       -4.07899       -0.27087
H         -4.54733       -4.74224        0.33454
H         -5.41305       -2.42269        0.74061
H         -4.71119       -1.02544        2.50586
H         -2.52127       -0.31261        3.68301
H         -0.15200        0.13902        3.23510
N          1.32378       -0.97755        1.33125
P          1.86457        0.68209        1.09693
C          2.68317        0.87569       -0.48400
C          2.38360        1.96789       -1.26404
C          2.87513        2.04433       -2.55338
C          3.67324        1.03206       -3.06662
C          3.98148       -0.05217       -2.25635
C          3.49248       -0.12737       -0.96450
H          3.71136       -0.98105       -0.34295
H          4.59469       -0.84561       -2.64842
C          4.14975        1.08839       -4.47609
H          2.62138        2.88382       -3.17810
H          1.74639        2.74673       -0.87621
C          2.86399        1.28879        2.44655
C          2.84327        0.61111        3.64119
C          3.58936        1.07877        4.70840
C          4.36234        2.22534        4.57921
C          4.36072        2.89974        3.36503
C          3.61384        2.43055        2.29935
H          3.60495        2.95353        1.35614
H          4.94360        3.79891        3.26107
C          5.14212        2.74866        5.73491
H          3.57188        0.55710        5.64997
H          2.24468       -0.28142        3.72985
H          1.73212       -1.51750        0.58164
H          1.19500       -0.24493       -1.93006
C         -0.63367        1.74959       -2.44751
C         -1.03467        3.04851       -2.24641
C         -0.91543        3.97461       -3.26448
C         -0.39442        3.60565       -4.49716
C         -0.02101        2.28326       -4.69396
C         -0.14127        1.35993       -3.67097
H          0.15319        0.33407       -3.82146
H          0.36792        1.98150       -5.65143
C         -0.28071        4.59846       -5.60102
H         -1.22909        4.99254       -3.10773
H         -1.44913        3.32975       -1.29345
C         -2.41605       -0.12580       -1.27835
C         -2.64584       -0.99638       -2.31812
C         -3.92591       -1.46682       -2.55701
C         -4.98337       -1.07075       -1.75002
C         -4.73395       -0.18201       -0.71243
C         -3.45698        0.29428       -0.48596
H         -3.27370        1.02126        0.28535
H         -5.54870        0.14587       -0.08981
C         -6.35477       -1.59327       -2.00234
H         -4.10932       -2.15059       -3.36807
H         -1.81887       -1.30228       -2.93998
Cl        -2.17305        2.81375        0.73102
H          1.34915       -6.82179       -1.76647
H          0.48918       -6.57617        2.45448
H         -0.00600       -7.37765        0.11283
H         -1.06886       -5.20073        1.12868
H         -3.56500       -4.62827        1.78080
H         -3.30410       -2.79633       -0.65519
H         -4.19995       -2.36028        3.50389
H         -5.76356       -3.45136        2.10458
H          3.41729        0.64073       -5.14935
H          4.31375        2.11872       -4.79487
H          5.09115        0.55052       -4.59623
H          4.54624        3.45403        6.31565
H          5.45098        1.94113        6.40014
H          6.04328        3.26453        5.40048
H          0.54634        4.35207       -6.26842
H         -1.19587        4.62475       -6.19402
H         -0.10301        5.60171       -5.21114
H         -6.37033       -2.68301       -1.95162
H         -7.06694       -1.21547       -1.26749
H         -6.70700       -1.29682       -2.99128
