111
-148.55357662
P         -1.84108        2.75697        0.49609
P         -0.49853       -0.10948        0.48160
C         -1.70415        1.81147        2.04083
C         -1.18214        0.53546        2.01859
C         -0.74459        4.24379        0.56961
C          0.36255        4.13988       -0.45801
C         -2.08679        2.37420        3.24180
H         -2.45474        3.38686        3.26144
C         -1.97188        1.64518        4.41295
H         -2.27497        2.08322        5.34991
C         -1.46350        0.36062        4.38395
H         -1.36910       -0.20453        5.29657
C         -1.05685       -0.19253        3.18299
H         -0.62476       -1.18025        3.14551
Pd        -1.42415        1.20754       -1.17250
Cl        -2.77052        2.36191       -2.53987
Cl        -0.83507       -0.39284       -2.63966
C         -1.71535        5.41981        0.34156
C         -3.48734        3.58192        0.29130
H         -0.05326        4.05174       -1.46387
H          1.00816        5.02112       -0.44079
H          0.98718        3.26047       -0.28582
H         -1.65692        5.72416       -0.71240
H         -1.39363        6.29959        0.91901
H         -3.71750        3.53054       -0.78050
C         -3.18384        5.03859        0.68470
C         -4.58340        2.91135        1.09174
H         -0.33833        4.26999        1.58906
H         -3.35611        5.16028        1.76281
H         -3.89305        5.72296        0.19435
H         -5.54851        3.39645        0.92898
H         -4.68341        1.85832        0.81884
H         -4.37416        2.95319        2.16082
C         -0.69924       -4.61419       -0.11257
C          0.41650       -4.03692        0.54630
C          0.44010       -2.66189        0.71064
C         -0.61810       -1.88480        0.31749
C         -1.74648       -2.44893       -0.21598
C         -1.83379       -3.81737       -0.41350
O         -0.66338       -5.97742       -0.50949
C          1.61418       -4.86502        1.03727
H          1.30283       -2.17179        1.12867
H         -2.55176       -1.79633       -0.50683
C         -3.12599       -4.40441       -1.00195
C          3.83553        1.22609        0.07393
C          3.07580        1.64612        1.19624
C          1.76927        1.20125        1.30709
C          1.19935        0.43753        0.32257
C          1.88948        0.13465       -0.82067
C          3.20115        0.54014       -0.99308
O          5.23558        1.46148        0.03503
C          3.65660        2.54641        2.29774
H          1.17745        1.44347        2.17184
H          1.37247       -0.41143       -1.59009
C          3.91412        0.21372       -2.31420
C          2.25687       -4.20759        2.28010
C          1.17917       -6.28124        1.45554
C          2.66928       -4.94017       -0.07706
C         -3.03111       -4.39749       -2.53541
C         -3.37172       -5.83518       -0.48979
C         -4.35029       -3.55993       -0.58120
C         -0.11658       -6.18717       -1.80566
H          2.73885       -3.26260        2.03387
H          1.50868       -4.02119        3.05012
H          3.02277       -4.85459        2.70723
H          2.01799       -6.84435        1.86393
H          0.39994       -6.23425        2.21551
H          0.78711       -6.84241        0.61122
H          2.26665       -5.41081       -0.97080
H          3.00890       -3.94214       -0.35313
H          3.53725       -5.51505        0.24478
H         -3.94254       -4.79013       -2.98534
H         -2.87979       -3.38407       -2.90660
H         -2.19736       -5.00331       -2.88172
H         -3.39700       -5.85368        0.59923
H         -4.32010       -6.22566       -0.85799
H         -2.58818       -6.51420       -0.81640
H         -4.38094       -3.43389        0.50073
H         -4.33752       -2.57345       -1.04215
H         -5.27743       -4.04338       -0.88827
H         -0.85073       -6.68965       -2.43525
H          0.16119       -5.23497       -2.25952
H          0.76352       -6.82589       -1.73368
C          6.01306        0.41283        0.59904
C          2.54847        3.41418        2.93632
C          4.28471        1.66946        3.39115
C          4.70708        3.51520        1.72487
C          4.96561        1.28411       -2.65789
C          4.57825       -1.16710       -2.20325
C          2.90394        0.18350       -3.48433
H          2.97492        4.12951        3.63916
H          2.01145        3.97675        2.17381
H          1.82989        2.81204        3.49024
H          5.08748        1.05509        2.99040
H          4.69706        2.28095        4.19334
H          3.54026        1.00152        3.82393
H          4.28100        4.10837        0.91634
H          5.06998        4.19847        2.49228
H          5.56631        2.97978        1.32866
H          4.50867        2.27249       -2.69444
H          5.76076        1.31178       -1.91712
H          5.42440        1.08619       -3.62629
H          3.83446       -1.93594       -1.99524
H          5.08705       -1.43154       -3.12985
H          5.31019       -1.18907       -1.39924
H          2.21709       -0.65759       -3.40378
H          3.41995        0.08372       -4.43888
H          2.31810        1.10180       -3.51468
H          6.61629        0.80512        1.41763
H          5.36631       -0.38227        0.97234
H          6.68610        0.00866       -0.15689
