111
-148.55736833
P         -2.62825        1.78453        1.06700
P          0.20712        0.52868        0.41985
C         -1.46892        1.44145        2.41646
C         -0.21199        0.95605        2.12546
C         -3.60813        3.32369        1.37665
C         -3.09709        4.48364        0.55027
C         -1.83664        1.66273        3.72828
H         -2.82720        2.02429        3.95066
C         -0.93769        1.40404        4.74855
H         -1.22385        1.57608        5.77332
C          0.32419        0.92425        4.45509
H          1.02358        0.72058        5.24919
C          0.68580        0.69506        3.14003
H          1.66106        0.30464        2.89804
Pd        -1.36245        1.69264       -0.85643
Cl        -3.16851        2.36628       -1.99809
Cl         0.04248        1.37625       -2.58005
C         -5.04575        2.88169        1.04618
C         -3.99582        0.54810        0.90033
H         -3.67920        5.39012        0.73179
H         -2.05036        4.70101        0.77593
H         -3.16234        4.25942       -0.51532
H         -5.25053        3.11076       -0.00879
H         -5.77210        3.47345        1.62393
H         -4.03216        0.27953       -0.16407
C         -5.24599        1.35879        1.29205
C         -3.74946       -0.67584        1.75528
H         -3.51447        3.54394        2.44756
H         -5.46023        1.18555        2.35564
H         -6.12839        0.98664        0.74963
H         -4.57459       -1.38795        1.68147
H         -2.83465       -1.18941        1.45509
H         -3.64093       -0.39951        2.80565
C         -1.26148       -3.72089       -0.33327
C         -0.90899       -3.31726        0.97991
C         -0.43956       -2.02830        1.16773
C         -0.36546       -1.14422        0.12400
C         -0.77877       -1.50526       -1.13010
C         -1.28309       -2.76808       -1.38360
O         -1.56037       -5.08354       -0.59974
C         -1.00540       -4.26320        2.18667
H         -0.12577       -1.69336        2.14063
H         -0.69536       -0.77680       -1.91705
C         -1.84158       -3.07459       -2.78195
C          4.67663        0.64776       -0.45201
C          4.12748       -0.40351        0.32942
C          2.75987       -0.40905        0.54834
C          1.96633        0.61850        0.10830
C          2.51134        1.70000       -0.53182
C          3.86910        1.76324       -0.80002
O          6.00077        0.54397       -0.95025
C          4.95835       -1.53027        0.96707
H          2.29396       -1.23500        1.05946
H          1.85358        2.49063       -0.85040
C          4.40955        3.03650       -1.47238
C          0.30172       -5.06081        2.31033
C         -1.22047       -3.46812        3.49500
C         -2.20180       -5.22075        2.04079
C         -0.70509       -3.57410       -3.68621
C         -2.96844       -4.12101       -2.71362
C         -2.45161       -1.79981       -3.41121
C         -0.43836       -5.85184       -1.01566
H          0.48257       -5.66085        1.42192
H          1.15168       -4.39024        2.43610
H          0.27032       -5.73160        3.16853
H         -0.34377       -2.87737        3.75674
H         -2.07416       -2.79688        3.40696
H         -1.41143       -4.14238        4.32956
H         -2.30891       -5.85150        2.92290
H         -3.12724       -4.66092        1.90933
H         -2.08271       -5.87544        1.18090
H          0.08030       -2.82296       -3.76704
H         -0.25520       -4.48133       -3.28986
H         -1.07072       -3.78957       -4.68984
H         -3.40650       -4.29002       -3.69698
H         -2.60191       -5.07684       -2.34824
H         -3.75961       -3.78856       -2.04235
H         -3.17339       -1.34109       -2.73582
H         -1.68872       -1.06000       -3.64841
H         -2.96710       -2.03578       -4.34172
H          0.46525       -5.24093       -1.00827
H         -0.30936       -6.70044       -0.34395
H         -0.60868       -6.23680       -2.02085
C          6.06789       -0.13358       -2.19417
C          6.46581       -1.22279        0.96091
C          4.53915       -1.70027        2.44457
C          4.69756       -2.84721        0.21705
C          5.94104        3.14723       -1.37448
C          3.98521        3.04851       -2.95054
C          3.82290        4.28049       -0.76912
H          6.85752       -1.18776       -0.05278
H          6.66308       -0.25873        1.42842
H          7.02454       -1.98494        1.50362
H          5.16395       -2.44107        2.94290
H          4.64005       -0.75848        2.98332
H          3.50646       -2.03252        2.53751
H          5.25686       -3.66781        0.66567
H          3.63997       -3.10837        0.24376
H          4.99404       -2.77097       -0.82728
H          6.29229        4.09944       -1.77132
H          6.26644        3.06958       -0.33770
H          6.43069        2.35646       -1.93772
H          2.90052        3.00512       -3.04421
H          4.32981        3.95468       -3.44792
H          4.39722        2.19494       -3.48510
H          4.25284        5.19526       -1.17636
H          4.03703        4.25504        0.29896
H          2.74371        4.34668       -0.89590
H          5.65765       -1.13727       -2.09643
H          5.49462        0.40684       -2.94549
H          7.10848       -0.19843       -2.51275
