87
-129.18242150
P         -1.63839       -0.44136        0.02133
P          1.58366        0.34164       -0.15730
C         -1.43633        0.81978       -1.26475
C          1.36745       -0.73045       -1.58161
C         -0.49627        0.75914       -2.29280
C         -0.32863        1.88130       -3.12755
C         -1.12737        2.99555       -2.93948
C         -2.06750        3.03182       -1.93399
C         -2.20864        1.94516       -1.09356
C          2.20848       -1.79968       -1.76921
C          2.05724       -2.61265       -2.87514
C          1.05940       -2.34565       -3.78904
C          0.19741       -1.27526       -3.61546
C          0.35933       -0.44033       -2.49140
Cl         1.31871        1.53910        2.82947
Cl        -1.35268       -0.28204        3.25579
H         -2.67733        3.90902       -1.79233
H         -2.92310        1.97950       -0.28746
H          2.99276       -1.99320       -1.05660
H          2.71614       -3.45260       -3.02242
H         -0.99650        3.84721       -3.58544
H          0.93980       -2.97618       -4.65365
C         -0.51416       -4.73626       -0.95354
C         -1.28288       -4.02176       -1.86200
C         -1.62074       -2.70776       -1.55772
C         -1.20489       -2.13805       -0.37745
C         -0.48110       -2.86860        0.53676
C         -0.12098       -4.16953        0.24270
H         -0.23403       -5.74895       -1.18874
C         -1.70529       -4.64201       -3.14717
H         -2.20054       -2.12388       -2.25277
H         -0.23766       -2.43035        1.49136
H          0.45558       -4.74286        0.95010
C         -5.88049       -0.27109        1.66870
C         -5.52973       -1.24387        0.75365
C         -4.23756       -1.29732        0.26526
C         -3.30696       -0.37893        0.69317
C         -3.65633        0.59289        1.60219
C         -4.94720        0.65549        2.11239
H         -6.88673       -0.22590        2.04914
H         -6.26163       -1.96122        0.42021
H         -3.94948       -2.05292       -0.44741
H         -2.91609        1.30054        1.93730
C         -5.31880        1.71448        3.08985
C          4.91016       -1.30106        2.48957
C          5.01886       -0.02692        1.96796
C          4.01661        0.47550        1.15982
C          2.91765       -0.30011        0.87532
C          2.80535       -1.56751        1.39837
C          3.79833       -2.08667        2.21910
H          5.69121       -1.69560        3.11692
H          5.88223        0.57738        2.19337
H          4.08222        1.47275        0.75675
H          1.94070       -2.16426        1.16411
C          3.67978       -3.46736        2.76168
C          2.48952        4.55108       -1.60065
C          3.24865        3.48879       -2.05127
C          2.98001        2.20927       -1.60137
C          1.96374        2.00819       -0.69724
C          1.21007        3.06414       -0.24086
C          1.45423        4.35347       -0.69722
H          2.69583        5.54806       -1.95092
H          4.04555        3.65491       -2.75746
H          3.54951        1.36462       -1.95648
H          0.41839        2.88829        0.46777
C          0.63869        5.49460       -0.20058
Pd        -0.01914        0.27669        1.54521
C          0.70280        1.90757       -4.20233
C         -0.87405       -1.02801       -4.61958
H          0.24472        1.78893       -5.18493
H          1.24370        2.85497       -4.19660
H          1.43764        1.11245       -4.07266
H         -1.63079       -0.34292       -4.23557
H         -0.45987       -0.59668       -5.53166
H         -1.37814       -1.95721       -4.88862
H         -2.50375       -4.06865       -3.62023
H         -0.86938       -4.69429       -3.84591
H         -2.07501       -5.65601       -2.98818
H         -4.49874        1.91091        3.78215
H         -5.55896        2.64746        2.57807
H         -6.18729        1.42045        3.68083
H          4.26414       -3.58458        3.67533
H          2.64203       -3.70581        2.99973
H          4.03586       -4.20050        2.03655
H          0.60812        6.30522       -0.92999
H         -0.38944        5.18508       -0.00657
H          1.05199        5.89036        0.72810
