105
-153.06272230
Cl         0.46047        3.64290        1.59320
Pd        -0.13799        1.92614        0.26529
P         -0.72198        0.24288       -1.30657
N          0.14250       -1.16974       -1.94126
C          0.22223       -2.49863       -1.53600
C         -0.11634       -2.97525       -0.23970
C          0.18197       -4.31335        0.10135
C          0.03820       -4.76711        1.53613
C         -0.13515       -6.28560        1.67880
C          0.97445       -7.02024        0.92075
C          0.96106       -6.65096       -0.57229
C          0.68788       -5.19268       -0.85937
C          0.94338       -4.72016       -2.13927
C          0.73683       -3.40477       -2.46278
H          0.97978       -3.05158       -3.45009
H          1.33126       -5.40080       -2.87837
H          1.91662       -6.92652       -1.03651
H          1.94635       -6.75228        1.35407
H         -0.15458       -6.58356        2.73671
H          0.93173       -4.44669        2.08530
C         -0.69575       -2.09710        0.81234
C          0.13607       -1.11674        1.41469
C         -0.31977       -0.43341        2.54292
C         -1.57308       -0.67660        3.04158
C         -2.42530       -1.59907        2.44157
C         -3.78687       -1.81078        3.06192
C         -4.73179       -2.72999        2.26689
C         -3.96762       -3.87657        1.59731
C         -2.89303       -3.31921        0.65424
C         -1.98784       -2.31533        1.32368
H         -2.30088       -4.13453        0.22290
H         -4.65354       -4.54743        1.06087
H         -5.24707       -2.14482        1.49587
H         -4.25568       -0.82998        3.21259
H         -1.91807       -0.13738        3.90750
H          0.31241        0.30788        2.99623
N          1.29686       -0.75117        0.73762
P          1.82944        0.87240        0.97696
C          2.91544        1.38437       -0.34649
C          3.11753        2.72719       -0.55897
C          3.87160        3.14337       -1.64079
C          4.41252        2.21586       -2.52167
C          4.19954        0.86389       -2.28527
C          3.44591        0.44903       -1.20218
H          3.25867       -0.59831       -1.02846
H          4.62078        0.13812       -2.95974
C          5.23001        2.66124       -3.68381
H          4.03212        4.19351       -1.81507
H          2.64707        3.43939        0.10095
C          2.63761        0.96275        2.57380
C          3.39366       -0.11329        2.97338
C          4.02930       -0.08791        4.20250
C          3.91409        1.01830        5.03412
C          3.13593        2.08963        4.61616
C          2.50293        2.06059        3.38849
H          1.89292        2.88507        3.06127
H          3.02687        2.94556        5.26010
C          4.57548        1.03704        6.36826
H          4.61678       -0.93080        4.52415
H          3.47135       -0.97195        2.32469
H          1.14553       -0.85308       -0.26513
H          0.36739       -0.97071       -2.90820
C         -0.59954        1.40635       -2.67389
C         -1.70299        1.83557       -3.37117
C         -1.55078        2.73646       -4.40884
C         -0.29302        3.21042       -4.75626
C          0.80957        2.76279       -4.04096
C          0.65379        1.86182       -3.00373
H          1.50651        1.52169       -2.43974
H          1.79042        3.12686       -4.29429
C         -0.14128        4.18852       -5.86893
H         -2.41184        3.08299       -4.95447
H         -2.68004        1.47548       -3.09463
C         -2.45210       -0.19569       -1.14981
C         -2.97722       -1.04973       -2.09016
C         -4.32021       -1.38097       -2.04683
C         -5.14280       -0.86078       -1.05742
C         -4.59357        0.00209       -0.11799
C         -3.25252        0.33388       -0.16590
H         -2.82994        1.01065        0.55831
H         -5.22275        0.41686        0.65079
C         -6.58475       -1.22978       -1.01175
H         -4.73679       -2.05087       -2.77947
H         -2.33106       -1.45578       -2.85255
Cl        -1.90264        3.11777       -0.46132
H          0.20295       -7.25019       -1.09079
H         -1.11057       -6.57897        1.27070
H          0.88285       -8.10728        1.05558
H         -0.79445       -4.24630        2.02067
H         -3.49003       -4.49480        2.36770
H         -3.37435       -2.83440       -0.20085
H         -3.64204       -2.22054        4.06877
H         -5.52878       -3.12230        2.91413
H          5.12084        1.97701       -4.52647
H          4.92620        3.65282       -4.02234
H          6.28746        2.70480       -3.41967
H          4.84855        2.05273        6.65784
H          3.91183        0.63522        7.13509
H          5.48724        0.43811        6.36451
H         -0.66658        5.11734       -5.64241
H          0.90720        4.43282       -6.04459
H         -0.55014        3.78764       -6.79746
H         -7.09655       -0.90740       -1.91954
H         -6.70636       -2.31026       -0.92180
H         -7.08839       -0.76603       -0.16253
