87
-129.18117146
P         -1.56957       -0.28326       -0.42546
P          1.74474        0.29825        0.27396
C         -1.09678        0.96688       -1.62462
C          1.53055       -0.81037       -1.14341
C          0.01922        0.73557       -2.41877
C          0.39072        1.70712       -3.36914
C         -0.37622        2.85455       -3.49174
C         -1.48320        3.06213       -2.69455
C         -1.84200        2.11237       -1.75824
C          2.14435       -2.03078       -0.98272
C          2.02890       -3.00648       -1.95396
C          1.28152       -2.75594       -3.08355
C          0.63668       -1.54365       -3.25855
C          0.76504       -0.54261       -2.27658
Cl         0.98823       -0.20163        3.31573
Cl        -1.66515       -1.88424        2.36313
H         -2.06443        3.96356       -2.79908
H         -2.70801        2.26081       -1.13483
H          2.71143       -2.22132       -0.08356
H          2.51358       -3.96011       -1.82368
H         -0.09174        3.59553       -4.21940
H          1.17914       -3.51557       -3.83994
C         -2.48899       -4.18149       -2.56781
C         -1.67257       -4.20344       -1.44529
C         -1.42430       -3.00760       -0.78323
C         -1.95304       -1.82776       -1.25145
C         -2.75674       -1.81245       -2.36713
C         -3.03027       -2.99651       -3.02666
H         -2.69915       -5.10449       -3.08078
C         -1.10141       -5.47896       -0.93475
H         -0.81588       -3.00373        0.10507
H         -3.15742       -0.87491       -2.71974
H         -3.66013       -2.99262       -3.90109
C         -5.19978        1.09555        1.95863
C         -5.27204       -0.05182        1.19423
C         -4.17231       -0.46460        0.46637
C         -3.01294        0.27414        0.50172
C         -2.93849        1.41644        1.26443
C         -4.03041        1.84176        2.01089
H         -6.05513        1.41909        2.52693
H         -6.18231       -0.62817        1.16858
H         -4.21082       -1.36560       -0.12373
H         -2.02607        1.98641        1.28016
C         -3.94682        3.08210        2.82895
C          6.11766       -0.00931        1.51562
C          5.77532        0.14557        0.18681
C          4.44400        0.23108       -0.17733
C          3.46630        0.16157        0.78857
C          3.80863        0.00832        2.11056
C          5.13879       -0.08800        2.49607
H          7.15359       -0.07003        1.80292
H          6.54413        0.20114       -0.56636
H          4.16162        0.34570       -1.21215
H          3.03226       -0.04208        2.85220
C          5.50335       -0.23082        3.93209
C          0.82415        4.71324       -0.30555
C          1.72377        4.08659       -1.14497
C          2.01294        2.74651       -0.96829
C          1.39255        2.04399        0.03729
C          0.52599        2.67544        0.90016
C          0.22311        4.02176        0.73695
H          0.58660        5.75352       -0.44933
H          2.19271        4.63779       -1.94348
H          2.70851        2.24097       -1.61823
H          0.11456        2.12865        1.73132
C         -0.74566        4.70052        1.63917
Pd        -0.14753       -0.53294        1.41508
C          1.58632        1.52680       -4.23791
C         -0.18553       -1.33305       -4.48287
H          1.29114        1.29814       -5.26270
H          2.19262        2.43355       -4.25827
H          2.22080        0.71485       -3.88054
H          0.44719       -1.10801       -5.34220
H         -0.76647       -2.22569       -4.71902
H         -0.88914       -0.50974       -4.35595
H         -0.12055       -5.31585       -0.48555
H         -1.75060       -5.91705       -0.17546
H         -0.98069       -6.20723       -1.73794
H         -3.00389        3.12454        3.37580
H         -4.01362        3.96900        2.19739
H         -4.75457        3.12975        3.56053
H          6.42072       -0.80931        4.04997
H          5.65905        0.74654        4.39086
H          4.71587       -0.74150        4.48827
H         -1.74244        4.71208        1.19622
H         -0.80837        4.19330        2.60286
H         -0.44911        5.73323        1.82795
