59
-75.80269235
Cl         1.42382        0.73895        2.40592
P          1.53712        0.00103       -0.75354
P         -1.62639       -0.15660       -0.84824
C          0.64274        0.33134       -2.33546
H          0.43498        1.40131       -2.39330
H          1.31007        0.08803       -3.16783
C         -0.63099       -0.46803       -2.37665
H         -0.40952       -1.53626       -2.42547
H         -1.24436       -0.22842       -3.25070
C          2.34976       -1.66226       -0.85250
H          1.83463       -2.22217       -1.64193
C          3.08217        1.00922       -0.59417
H          3.36385        0.96806        0.46546
C         -2.75763       -1.55501       -0.37861
H         -2.65958       -1.66166        0.70890
C         -2.88931        1.17928       -1.11995
H         -2.92535        1.34585       -2.20340
C          3.81273       -1.34789       -1.25099
H          4.47989       -1.73268       -0.46797
H          4.09106       -1.89719       -2.16238
C          4.06931        0.17679       -1.42968
H          3.94981        0.45367       -2.48708
H          5.10753        0.43822       -1.17191
C         -4.15165       -1.01071       -0.73224
H         -4.40369       -1.32046       -1.75590
H         -4.91670       -1.47035       -0.08792
C         -4.19935        0.53544       -0.63234
H         -4.36567        0.82630        0.41414
H         -5.05726        0.94016       -1.19053
C          2.22640       -2.38206        0.48704
H          1.18373       -2.34504        0.82953
H          2.78751       -1.81547        1.24278
C          2.92280        2.46183       -1.02986
H          3.91518        2.89056       -1.22716
H          2.40099        2.49153       -1.99446
C         -2.43070       -2.88086       -1.05867
H         -3.26879       -3.57513       -0.90611
H         -2.38550       -2.72242       -2.14375
C         -2.55998        2.48373       -0.40145
H         -3.44474        3.13524       -0.42090
H         -2.38490        2.26843        0.66034
C          2.70578       -3.82562        0.43715
H          2.13495       -4.40451       -0.29142
H          2.60470       -4.32380        1.40403
H          3.75528       -3.88841        0.14479
C          2.19452        3.30387        0.00745
H          2.00063        4.31908       -0.34589
H          2.77479        3.38119        0.92895
H          1.23878        2.85713        0.28117
C         -1.14407       -3.51131       -0.55304
H         -1.19709       -3.71273        0.51863
H         -0.29341       -2.85005       -0.71127
H         -0.92289       -4.45583       -1.05535
C         -1.36993        3.21377       -0.99664
H         -1.15419        4.14689       -0.47113
H         -0.47455        2.59677       -0.94915
H         -1.53832        3.45745       -2.04736
Cl        -1.85171        0.42566        2.25029
Pd        -0.10271        0.18023        0.86495
