87
-129.17886764
P         -1.63902       -0.35750        0.32542
P          1.57638        0.31073       -0.15924
C         -1.44144        0.95679       -0.90585
C          1.20150       -0.70231       -1.59508
C         -0.64105        0.89860       -2.04450
C         -0.50127        2.05686       -2.83336
C         -1.18999        3.20576       -2.48432
C         -1.98762        3.24251       -1.36193
C         -2.10061        2.11655       -0.56922
C          1.98267       -1.78400       -1.92012
C          1.69237       -2.52978       -3.04570
C          0.61666       -2.18501       -3.83823
C         -0.18438       -1.09864       -3.52588
C          0.12413       -0.32829       -2.38683
Cl         1.60951        1.72485        2.72695
Cl        -1.06444        0.01248        3.54388
H         -2.50793        4.14747       -1.09437
H         -2.69833        2.14071        0.33013
H          2.82681       -2.03824       -1.30137
H          2.30265       -3.38026       -3.30173
H         -1.08076        4.08566       -3.09548
H          0.38591       -2.76723       -4.71415
C         -0.44132       -4.63890       -0.63565
C         -1.24701       -3.95201       -1.53273
C         -1.60841       -2.64299       -1.23382
C         -1.16629       -2.04478       -0.07750
C         -0.40487       -2.74912        0.82635
C         -0.02833       -4.04754        0.54150
H         -0.15061       -5.65039       -0.86311
C         -1.70208       -4.60634       -2.78967
H         -2.23035       -2.08679       -1.91419
H         -0.14165       -2.29234        1.76735
H          0.57348       -4.60166        1.24322
C         -6.07219       -0.45280        1.35415
C         -5.14659       -0.36985        2.37542
C         -3.79827       -0.34001        2.08014
C         -3.38248       -0.39006        0.77183
C         -4.30223       -0.47302       -0.24857
C         -5.66441       -0.51276        0.02860
H         -7.12482       -0.46971        1.58007
H         -5.47461       -0.32561        3.40105
H         -3.06278       -0.26830        2.86265
H         -3.96125       -0.49875       -1.27069
C         -6.66026       -0.57420       -1.07573
C          5.01010       -1.55648        2.18820
C          5.10698       -0.24961        1.75269
C          4.07237        0.31560        1.03136
C          2.94984       -0.42743        0.75099
C          2.85027       -1.72691        1.18946
C          3.88202       -2.31549        1.90867
H          5.81238       -1.99657        2.75553
H          5.98528        0.33207        1.97994
H          4.12934        1.33874        0.69746
H          1.96368       -2.29459        0.97006
C          3.75246       -3.71817        2.38907
C          2.74562        4.43412       -1.67122
C          3.36031        3.30756       -2.18164
C          3.00896        2.05652       -1.70915
C          2.05503        1.94585       -0.72482
C          1.44519        3.06592       -0.21060
C          1.77365        4.32930       -0.68580
H          3.01713        5.40944       -2.03762
H          4.10886        3.40177       -2.95114
H          3.46590        1.16420       -2.10779
H          0.70154        2.96195        0.56111
C          1.11671        5.53962       -0.12233
Pd         0.12929        0.39274        1.69295
C          0.39081        2.08571       -4.02620
C         -1.34689       -0.76767       -4.39516
H          1.08680        1.24631       -4.02681
H         -0.19024        2.04525       -4.94825
H          0.98469        3.00070       -4.04345
H         -1.01645       -0.31530       -5.33093
H         -1.91800       -1.66420       -4.64027
H         -2.02602       -0.06973       -3.90391
H         -0.85245       -4.85404       -3.42750
H         -2.24211       -5.52931       -2.57382
H         -2.36834       -3.95596       -3.35798
H         -6.25702       -1.10513       -1.93937
H         -7.56614       -1.09427       -0.76095
H         -6.94224        0.42885       -1.39893
H          3.40668       -4.37330        1.58801
H          4.70699       -4.10619        2.74717
H          3.03516       -3.78109        3.20867
H          0.08623        5.32681        0.16622
H          1.64809        5.89122        0.76303
H          1.09571        6.35242       -0.84964
