111
-148.55541102
P         -2.73234        1.83507       -0.28119
P          0.16897        0.63347        0.18486
C         -1.82446        2.22882        1.23788
C         -0.53908        1.75961        1.40702
C         -3.74646        3.26991       -0.86235
C         -3.08431        3.99779       -2.01172
C         -2.41294        2.99703        2.22223
H         -3.42494        3.34451        2.09415
C         -1.70684        3.30223        3.37295
H         -2.16577        3.90199        4.14193
C         -0.41616        2.83803        3.53734
H          0.13339        3.07380        4.43381
C          0.16691        2.06029        2.55357
H          1.16726        1.67792        2.67668
Pd        -1.16917        0.89677       -1.69275
Cl        -2.68404        1.04955       -3.34222
Cl         0.40392       -0.04527       -2.98723
C         -5.09554        2.61064       -1.20265
C         -4.05542        0.55596       -0.07523
H         -3.68759        4.84391       -2.34879
H         -2.09905        4.37475       -1.72737
H         -2.94601        3.33321       -2.86519
H         -5.08852        2.32146       -2.26272
H         -5.91564        3.33752       -1.09912
H         -3.89593       -0.17603       -0.87846
C         -5.35112        1.35188       -0.32452
C         -3.97828       -0.11023        1.28136
H         -3.86011        3.93999       -0.00087
H         -5.76744        1.66105        0.64407
H         -6.11576        0.70471       -0.78031
H         -4.77724       -0.84360        1.41295
H         -3.02454       -0.62371        1.41561
H         -4.06837        0.62727        2.08099
C         -1.26441       -3.55649        1.24106
C         -0.86411       -3.26112       -0.08698
C         -0.42261       -1.98036       -0.36581
C         -0.32112       -1.03445        0.61902
C         -0.59714       -1.34748        1.92371
C         -1.02870       -2.61515        2.27625
O         -1.94236       -4.77180        1.52417
C         -0.95844       -4.28048       -1.23184
H         -0.17035       -1.68917       -1.37040
H         -0.49213       -0.57653        2.66678
C         -1.26987       -2.93217        3.75990
C          4.71496        0.88044        0.03099
C          3.95137        1.36970       -1.06268
C          2.56984        1.31857       -0.97287
C          1.95265        0.72722        0.09801
C          2.68815        0.13031        1.08929
C          4.07272        0.15762        1.07086
O          6.09945        1.17631        0.12087
C          4.56849        1.91224       -2.36336
H          1.95584        1.72787       -1.75676
H          2.16357       -0.36832        1.88699
C          4.82235       -0.61064        2.17236
C         -0.73757       -5.71482       -0.71914
C         -2.33653       -4.16106       -1.90062
C          0.13030       -4.00779       -2.29504
C         -2.70417       -2.53285        4.13878
C         -1.03850       -4.42521        4.05515
C         -0.28388       -2.14052        4.64935
C         -3.35790       -4.67777        1.42248
H         -0.74278       -6.43003       -1.54127
H          0.21974       -5.79522       -0.20527
H         -1.51651       -6.01093       -0.02097
H         -3.13679       -4.36635       -1.19353
H         -2.48905       -3.15482       -2.29064
H         -2.43072       -4.86229       -2.72929
H          0.15134       -4.80275       -3.04003
H         -0.05045       -3.07587       -2.82859
H          1.11649       -3.95365       -1.83484
H         -3.43466       -3.07029        3.53852
H         -2.90529       -2.74880        5.18773
H         -2.86288       -1.46675        3.97813
H         -1.14419       -4.63543        5.11916
H         -1.75218       -5.05023        3.52444
H         -0.03765       -4.72630        3.74748
H         -0.48492       -1.07060        4.62306
H         -0.36342       -2.45506        5.68970
H          0.74445       -2.30400        4.32781
H         -3.65224       -3.67053        1.12474
H         -3.71954       -5.39431        0.68514
H         -3.81146       -4.91921        2.38359
C          6.35608        2.40786        0.77448
C          4.38081        3.43675       -2.42373
C          6.06428        1.57372       -2.48743
C          3.85849        1.26507       -3.57370
C          4.70976        0.16007        3.49799
C          4.19065       -2.01020        2.34618
C          6.30604       -0.82675        1.82737
H          4.78857        3.84265       -3.34916
H          3.32490        3.70138       -2.37798
H          4.88304        3.92772       -1.59224
H          6.22588        0.50194       -2.37751
H          6.45759        1.87977       -3.45655
H          6.64758        2.07900       -1.72127
H          2.80927        1.54963       -3.62905
H          4.32715        1.57025       -4.50883
H          3.90750        0.17839       -3.51153
H          5.15873        1.14824        3.41724
H          3.66671        0.29124        3.78468
H          5.21461       -0.37349        4.30290
H          4.75689       -2.60553        3.06202
H          3.16735       -1.95157        2.71317
H          4.17839       -2.54675        1.39790
H          6.40819       -1.31067        0.85668
H          6.79607       -1.45220        2.57318
H          6.84262        0.11828        1.78692
H          5.86511        3.22206        0.24373
H          5.97741        2.37490        1.79483
H          7.43129        2.58685        0.79481
