105
-153.06000746
Cl         0.35262        3.57425        1.74070
Pd        -0.09678        1.97453        0.21940
P         -0.71938        0.26280       -1.30619
N          0.11062       -1.15187       -1.98122
C          0.18970       -2.48481       -1.59019
C         -0.14316       -2.97280       -0.29693
C          0.16721       -4.30945        0.03713
C          0.00234       -4.76463        1.46935
C          0.80098       -6.03123        1.80944
C          0.56462       -7.11278        0.75141
C          1.00180       -6.62588       -0.63986
C          0.67459       -5.18017       -0.92974
C          0.92134       -4.69877       -2.20835
C          0.70336       -3.38323       -2.52497
H          0.94237       -3.02257       -3.51052
H          1.31975       -5.37097       -2.94958
H          2.08410       -6.76265       -0.75210
H          1.08424       -8.04267        1.02248
H          1.87004       -5.78721        1.84748
H          0.29477       -3.94481        2.13783
C         -0.72424       -2.10945        0.76632
C          0.10600       -1.13283        1.37570
C         -0.34332       -0.46706        2.51631
C         -1.58627       -0.73332        3.02903
C         -2.43639       -1.65633        2.42642
C         -3.78630       -1.89550        3.06260
C         -4.74228       -2.79143        2.25363
C         -3.98671       -3.91145        1.53085
C         -2.92958       -3.31605        0.59128
C         -2.00868       -2.34622        1.28809
H         -2.35137       -4.10898        0.10341
H         -4.67937       -4.56502        0.98191
H         -5.27436       -2.18247        1.51306
H         -4.25633       -0.92270        3.25533
H         -1.92523       -0.21135        3.90778
H          0.28715        0.27457        2.97126
N          1.26592       -0.76475        0.70042
P          1.81999        0.84669        0.95626
C          2.92256        1.34465       -0.36020
C          3.18178        2.68218       -0.54282
C          3.94798        3.08980       -1.61962
C          4.45560        2.15944       -2.51715
C          4.17073        0.81442       -2.32034
C          3.40463        0.40798       -1.24296
H          3.16940       -0.63363       -1.09602
H          4.54445        0.08812       -3.02173
C          5.24651        2.60112       -3.69887
H          4.14429        4.13653       -1.77709
H          2.75040        3.39937        0.13813
C          2.63506        0.90025        2.55136
C          2.47789        1.96187        3.40892
C          3.11844        1.96016        4.63296
C          3.92671        0.89408        5.00460
C          4.06433       -0.17596        4.13025
C          3.42105       -0.17046        2.90485
H          3.51654       -1.00139        2.22315
H          4.67528       -1.01516        4.41578
C          4.59649        0.87789        6.33459
H          2.99143        2.78736        5.31029
H          1.84326        2.78158        3.11876
H          1.11276       -0.85572       -0.30313
H          0.32750       -0.94163       -2.94763
C         -0.60505        1.45362       -2.65175
C         -1.71974        1.96054       -3.27567
C         -1.57551        2.88591       -4.29270
C         -0.31404        3.30423       -4.69531
C          0.79879        2.78688       -4.04670
C          0.65152        1.86131       -3.03011
H          1.51364        1.46952       -2.51588
H          1.78133        3.11876       -4.33532
C         -0.15971        4.32484       -5.76846
H         -2.44554        3.29553       -4.77682
H         -2.69849        1.64303       -2.95622
C         -2.45271       -0.15618       -1.13132
C         -3.01664       -0.94085       -2.10891
C         -4.36369       -1.25281       -2.05049
C         -5.15215       -0.78056       -1.01052
C         -4.56289        0.00834       -0.03124
C         -3.21734        0.31887       -0.09280
H         -2.76138        0.93343        0.66609
H         -5.16392        0.38129        0.78027
C         -6.59753       -1.13308       -0.94675
H         -4.81029       -1.86952       -2.81158
H         -2.39774       -1.30769       -2.91276
Cl        -1.99207        3.09839       -0.24876
H          0.54694       -7.25041       -1.41937
H          0.54558       -6.40092        2.81265
H         -0.50234       -7.36854        0.72973
H         -1.05913       -4.94260        1.67116
H         -3.49536       -4.55477        2.27128
H         -3.42860       -2.78765       -0.22745
H         -3.62185       -2.33876        4.05210
H         -5.52551       -3.20921        2.90171
H          5.96234        1.83583       -4.00204
H          4.59275        2.80560       -4.54784
H          5.80773        3.51043       -3.47938
H          4.83450        1.88899        6.66784
H          3.95343        0.41826        7.08635
H          5.52939        0.31355        6.29886
H          0.78544        4.19932       -6.29860
H         -0.96328        4.24908       -6.50233
H         -0.17969        5.33191       -5.34978
H         -7.09435       -0.62957       -0.11636
H         -7.10897       -0.84289       -1.86556
H         -6.72919       -2.20782       -0.81301
