171
-217.84310036
P         -1.64398        0.36385       -0.42992
P          1.61162       -0.41043       -0.31742
C         -0.88735        1.29140       -1.76665
C          0.93398       -1.40898       -1.64337
C         -0.05689        0.64776       -2.67768
C          0.59400        1.41884       -3.66019
C          0.36228        2.78312       -3.71460
C         -0.48970        3.39634       -2.82077
C         -1.10880        2.64482       -1.84166
C          1.16666       -2.76270       -1.62465
C          0.60055       -3.57762       -2.58472
C         -0.21539       -3.02686       -3.55007
C         -0.46405       -1.66439       -3.58402
C          0.13996       -0.82852       -2.62572
Cl         1.40763        0.38681        2.89210
Cl        -1.66398       -0.46068        2.79976
C         -1.34827       -1.10590       -4.64252
C          1.51921        0.79672       -4.64703
H         -0.66899        4.45727       -2.88278
H         -1.77270        3.11661       -1.13581
H          1.79407       -3.18479       -0.85641
H          0.79046       -4.63848       -2.57360
H          0.85902        3.36663       -4.47140
H         -0.67081       -3.65942       -4.29328
C         -3.99396       -3.23905       -1.81464
C         -2.94290       -3.42445       -0.92466
C         -2.22966       -2.30380       -0.51851
C         -2.55433       -1.06274       -1.00552
C         -3.59065       -0.89544       -1.89046
C         -4.34022       -1.98725       -2.31098
H         -4.56346       -4.09843       -2.11423
H         -1.41838       -2.38662        0.18396
H         -3.82527        0.09676       -2.23903
C         -4.21856        2.86368        2.34705
C         -4.78429        1.75909        1.72251
C         -3.98914        1.02812        0.84860
C         -2.68897        1.39954        0.61071
C         -2.14548        2.49059        1.24293
C         -2.89886        3.24284        2.13404
H         -4.82446        3.43015        3.02876
H         -4.37047        0.14668        0.36459
H         -1.11519        2.74137        1.05680
C          4.35392       -2.77158        2.42046
C          3.00921       -3.12124        2.35937
C          2.19038       -2.41143        1.49131
C          2.69654       -1.38247        0.73755
C          4.02304       -1.04191        0.82059
C          4.88311       -1.73374        1.66150
H          5.00243       -3.31489        3.08018
H          1.14303       -2.65063        1.41550
H          4.39028       -0.21848        0.23319
C          3.93692        3.25633       -1.56523
C          2.93874        3.38839       -0.60717
C          2.21202        2.25516       -0.26801
C          2.47791        1.05204       -0.87168
C          3.46836        0.93485       -1.81545
C          4.22383        2.04338       -2.18022
H          4.52652        4.11381       -1.82938
H          1.45104        2.30252        0.49241
H          3.65862       -0.03414       -2.24498
Pd        -0.07578       -0.02574        1.25320
C         -3.81899       -5.32363        0.45104
C         -2.62861       -4.82783       -0.38898
C         -1.36891       -4.82480        0.49847
C         -2.38818       -5.78825       -1.56877
H         -4.72719       -5.38158       -0.14798
H         -3.62292       -6.31486        0.85945
H         -4.01012       -4.64647        1.28339
H         -1.13960       -5.83128        0.84810
H         -0.50477       -4.46027       -0.05564
H         -1.50744       -4.19530        1.37722
H         -2.12289       -6.78369       -1.21307
H         -3.27637       -5.88481       -2.19173
H         -1.57597       -5.42787       -2.19877
C         -6.57523       -0.88128       -2.53567
C         -5.53967       -1.77098       -3.24662
C         -6.21690       -3.10273       -3.62406
C         -5.07360       -1.08203       -4.54207
H         -7.44828       -0.71649       -3.16685
H         -6.91161       -1.34909       -1.61071
H         -6.15390        0.09247       -2.28821
H         -6.60546       -3.61033       -2.74139
H         -7.05480       -2.93203       -4.29995
H         -5.51687       -3.76923       -4.12770
H         -5.91664       -0.89261       -5.20636
H         -4.59315       -0.12670       -4.33484
H         -4.36295       -1.70999       -5.07742
C         -7.17484        2.52466        1.70165
C         -6.23079        1.35714        2.04319
C         -6.33932        1.01869        3.54116
C         -6.66996        0.12359        1.23102
H         -6.94282        3.40954        2.29299
H         -7.08871        2.79320        0.64888
H         -8.21290        2.25662        1.89773
H         -7.35102        0.70598        3.79888
H         -5.65787        0.20897        3.80152
H         -6.08753        1.87883        4.16040
H         -7.70051       -0.14605        1.46159
H         -6.61200        0.32368        0.16204
H         -6.04493       -0.74020        1.45696
C         -0.88937        4.06075        3.40747
C         -2.26421        4.45485        2.83051
C         -3.14008        4.96648        3.99078
C         -2.09298        5.58521        1.80166
H         -0.44609        4.88870        3.96029
H         -0.98545        3.21346        4.08607
H         -0.19030        3.78080        2.62179
H         -4.09833        5.33852        3.62930
H         -3.32714        4.17459        4.71590
H         -2.64853        5.78705        4.51332
H         -1.61036        6.45366        2.24960
H         -1.48611        5.25762        0.95919
H         -3.06026        5.89909        1.40970
C          1.17302       -3.71326        3.96637
C          2.40317       -4.24900        3.20627
C          3.40964       -4.79194        4.23881
C          1.97934       -5.39925        2.27687
H          0.75106       -4.47995        4.61573
H          1.44597       -2.85847        4.58473
H          0.38798       -3.39186        3.28345
H          4.27565       -5.23692        3.74936
H          3.75532       -3.99869        4.90146
H          2.95086       -5.56380        4.85667
H          1.52619       -6.21340        2.84217
H          1.25537       -5.05808        1.53881
H          2.83958       -5.79728        1.73899
C          6.44573        0.15658        2.17686
C          6.35835       -1.31408        1.72620
C          6.98897       -1.46441        0.32909
C          7.15563       -2.17941        2.72044
H          5.97492        0.28858        3.15078
H          7.48352        0.47985        2.25574
H          5.94401        0.81842        1.47170
H          6.91980       -2.49599       -0.01552
H          6.48491       -0.83384       -0.40232
H          8.04157       -1.18226        0.34318
H          8.19943       -1.86736        2.75382
H          6.75247       -2.08985        3.72901
H          7.13491       -3.22987        2.43081
C          1.18678        5.12419       -0.18561
C          2.63947        4.71298        0.10737
C          3.57243        5.84397       -0.36543
C          2.83153        4.52327        1.62413
H          0.92798        6.04623        0.33455
H          1.04219        5.28610       -1.25320
H          0.49035        4.34991        0.13111
H          3.45837        6.02567       -1.43398
H          3.34402        6.77497        0.15331
H          4.61582        5.60167       -0.16438
H          2.16789        3.75387        2.01586
H          3.85506        4.22282        1.84714
H          2.62499        5.44778        2.16295
C          5.21233        2.97641       -4.29711
C          5.39661        1.94657       -3.16643
C          5.49697        0.54302       -3.79561
C          6.70700        2.23684       -2.41152
H          4.27181        2.81304       -4.82160
H          5.20662        3.99498       -3.91140
H          6.02023        2.90329       -5.02499
H          6.31900        0.49761       -4.50985
H          5.68119       -0.21624       -3.03585
H          4.58234        0.28378       -4.32764
H          6.70208        3.23906       -1.98428
H          6.84695        1.52753       -1.59599
H          7.56663        2.16072       -3.07711
H         -2.11686       -1.82602       -4.92471
H          1.83066       -0.19977       -4.33108
H         -0.77791       -0.85918       -5.53872
H         -1.85102       -0.20028       -4.30003
H          2.41925        1.40012       -4.76622
H          1.04478        0.70915       -5.62534
