105
-153.06062088
Cl         0.57577        3.68290        1.48353
Pd        -0.09935        1.94993        0.21245
P         -0.75010        0.23615       -1.29964
N          0.10903       -1.17500       -1.94365
C          0.19196       -2.50211       -1.53373
C         -0.12446       -2.96827       -0.22841
C          0.19721       -4.29727        0.12547
C          0.11205       -4.72676        1.57233
C         -0.05909       -6.24254        1.74251
C          1.02850       -6.98829        0.96300
C          0.97600       -6.63839       -0.53436
C          0.68728       -5.18566       -0.83515
C          0.91071       -4.72736       -2.12645
C          0.69249       -3.41617       -2.46059
H          0.91595       -3.07248       -3.45581
H          1.28634       -5.41478       -2.86558
H          1.92129       -6.91514       -1.01843
H          2.01213       -6.71678        1.36661
H         -0.04861       -6.52509        2.80474
H          1.03166       -4.40436        2.07554
C         -0.70942       -2.08762        0.81777
C          0.11679       -1.10114        1.41634
C         -0.34298       -0.41467        2.54055
C         -1.59193       -0.67067        3.04433
C         -2.43320       -1.60728        2.45037
C         -3.79267       -1.84067        3.05488
C         -4.38267       -3.20886        2.68342
C         -4.32222       -3.42257        1.16804
C         -2.87845       -3.34135        0.64207
C         -2.00014       -2.31690        1.32693
H         -2.40921       -4.32691        0.73110
H         -4.93338       -2.65734        0.67668
H         -5.41307       -3.30723        3.05362
H         -4.46677       -1.04258        2.72244
H         -1.94228       -0.12879        3.90631
H          0.28301        0.33548        2.98783
N          1.27931       -0.74302        0.73935
P          1.83601        0.87244        0.97309
C          2.93440        1.35028       -0.35464
C          3.15252        2.68624       -0.59304
C          3.91214        3.07316       -1.68163
C          4.44220        2.12317       -2.54478
C          4.21265        0.77850       -2.28340
C          3.45370        0.39315       -1.19312
H          3.25304       -0.64847       -1.00084
H          4.62507        0.03509       -2.94396
C          5.26524        2.53859       -3.71407
H          4.08504        4.11786       -1.87573
H          2.68825        3.41642        0.05111
C          2.63157        0.96533        2.57560
C          3.34360       -0.12898        3.00526
C          3.96627       -0.10168        4.24094
C          3.88212        1.02466        5.04901
C          3.14821        2.11479        4.60069
C          2.52793        2.08366        3.36657
H          1.95193        2.92277        3.01567
H          3.06352        2.98701        5.22618
C          4.52853        1.04727        6.39041
H          4.51898       -0.95864        4.58615
H          3.39664       -1.00300        2.37490
H          1.12891       -0.84929       -0.26330
H          0.30645       -0.98364       -2.91808
C         -0.62157        1.40988       -2.65813
C         -1.72720        1.90742       -3.30491
C         -1.56789        2.81836       -4.33268
C         -0.30056        3.23084       -4.72306
C          0.80292        2.72223       -4.05182
C          0.64080        1.81112       -3.02442
H          1.49552        1.42540       -2.49291
H          1.78979        3.04924       -4.33128
C         -0.13098        4.23687       -5.80760
H         -2.43069        3.22129       -4.83501
H         -2.71028        1.59357       -2.99520
C         -2.48129       -0.20060       -1.14840
C         -3.01422       -1.01827       -2.11626
C         -4.36127       -1.33390       -2.08718
C         -5.18106       -0.83299       -1.08530
C         -4.62389       -0.00800       -0.11760
C         -3.27738        0.30307       -0.14771
H         -2.84644        0.94671        0.60151
H         -5.25326        0.39622        0.65662
C         -6.63636       -1.14818       -1.06972
H         -4.78441       -1.96895       -2.84653
H         -2.37223       -1.40321       -2.89306
Cl        -1.99763        3.04031       -0.29653
H          0.20882       -7.24867       -1.02590
H         -1.04563       -6.54104        1.36634
H          0.93919       -8.07337        1.11408
H         -0.69279       -4.19186        2.08792
H         -4.78303       -4.38177        0.89325
H         -2.88099       -3.12623       -0.43357
H         -3.72590       -1.73576        4.14532
H         -3.81053       -3.99973        3.18478
H          6.31747        2.61931       -3.43812
H          5.18472        1.81722       -4.52849
H          4.94226        3.50729       -4.09811
H          3.83396        0.70922        7.16063
H          5.40383        0.39676        6.41743
H          4.85698        2.05423        6.65162
H         -0.92032        4.14660       -6.55516
H         -0.16368        5.24966       -5.40379
H          0.82455        4.10874       -6.31816
H         -6.82241       -2.16255       -1.42563
H         -7.04675       -1.07069       -0.06186
H         -7.18811       -0.45958       -1.71099
