59
-75.79941954
Cl         1.58533        0.82839        2.34595
P          1.58325        0.18297       -0.82952
P         -1.55459       -0.25403       -0.74047
C          0.57508        0.35623       -2.36661
H          0.23677        1.39031       -2.44481
H          1.21226        0.15249       -3.23261
C         -0.60412       -0.57013       -2.29268
H         -0.27044       -1.61094       -2.27152
H         -1.27823       -0.45865       -3.14770
C          2.67750       -1.31713       -0.89555
H          2.48787       -1.81354       -1.85543
C          2.86466        1.50640       -0.56137
H          2.51825        2.13151        0.27105
C         -2.76562       -1.61484       -0.38787
H         -2.68321       -1.82319        0.68590
C         -2.72546        1.18125       -0.87789
H         -2.72101        1.48046       -1.93287
C          4.09499       -0.71169       -0.85054
H          4.77986       -1.40335       -0.33859
H          4.49115       -0.60560       -1.87125
C          4.09742        0.67433       -0.15339
H          5.01981        1.22637       -0.38679
H          4.10522        0.53179        0.93764
C         -4.12229       -0.96430       -0.70502
H         -4.38301       -1.18014       -1.75040
H         -4.91865       -1.42535       -0.10091
C         -4.08539        0.57021       -0.48840
H         -4.27745        0.78911        0.57115
H         -4.89893        1.06424       -1.04108
C          2.41469       -2.28883        0.25330
H          2.42268       -1.72727        1.19679
H          3.25789       -2.98947        0.32954
C          3.12807        2.37761       -1.79503
H          4.14759        2.78254       -1.72869
H          3.13579        1.73715       -2.68628
C         -2.49388       -2.88349       -1.18985
H         -2.56091       -2.64715       -2.25981
H         -1.45701       -3.20341       -1.02969
C         -2.34298        2.36272        0.01126
H         -3.19015        3.06156        0.05356
H         -2.21806        2.00246        1.04087
C          1.11983       -3.07084        0.10711
H          0.96066       -3.76036        0.93929
H          1.11492       -3.65842       -0.81293
H          0.25806       -2.40602        0.06895
C          2.15108        3.53111       -1.96558
H          2.13969        4.17165       -1.08158
H          1.13228        3.18223       -2.12118
H          2.40803        4.15990       -2.82129
C         -3.44295       -4.02048       -0.84152
H         -3.37686       -4.27720        0.21747
H         -3.22601       -4.92563       -1.41343
H         -4.48066       -3.74818       -1.04209
C         -1.09611        3.09945       -0.44562
H         -0.86780        3.95474        0.19452
H         -0.22362        2.44675       -0.43291
H         -1.21095        3.47279       -1.46491
Cl        -1.47533       -0.32783        2.49409
Pd         0.04058        0.09229        0.89819
