111
-148.55568812
P         -2.56091        2.07789        1.02177
P          0.11366        0.41886        0.49746
C         -1.44747        1.68467        2.39875
C         -0.27382        1.00183        2.15933
C         -3.33474        3.74864        1.20272
C         -2.73755        4.73805        0.22600
C         -1.77751        2.05303        3.68719
H         -2.70572        2.56829        3.87283
C         -0.92380        1.74429        4.73235
H         -1.18097        2.03196        5.73869
C          0.25503        1.06607        4.48817
H          0.91840        0.82392        5.30210
C          0.57911        0.68983        3.19700
H          1.48780        0.14620        2.98959
Pd        -1.34670        1.57683       -0.86741
Cl        -3.02316        2.38753       -2.11597
Cl         0.01020        1.08494       -2.59259
C         -4.83240        3.45831        0.98873
C         -4.07307        1.01405        0.97620
H         -2.89029        4.40723       -0.80237
H         -3.19595        5.72469        0.32625
H         -1.66099        4.84614        0.37862
H         -5.07621        3.62912       -0.06893
H         -5.44727        4.17576        1.55319
H         -4.19216        0.69992       -0.06949
C         -5.19354        1.99404        1.37072
C         -3.93110       -0.18743        1.88538
H         -3.15078        4.06806        2.23634
H         -5.35599        1.92749        2.45536
H         -6.14645        1.69136        0.91043
H         -3.09228       -0.81630        1.57946
H         -3.74784        0.12497        2.91513
H         -4.83415       -0.80219        1.87988
C         -1.14835       -3.91562       -0.08184
C         -1.08353       -3.38090        1.23093
C         -0.69343       -2.06102        1.38387
C         -0.44782       -1.26879        0.29379
C         -0.61284       -1.75107       -0.97689
C         -1.00366       -3.05863       -1.20261
O         -1.31348       -5.31337       -0.27155
C         -1.38580       -4.22160        2.48089
H         -0.55983       -1.63587        2.36277
H         -0.41532       -1.08224       -1.79653
C         -1.22785       -3.52538       -2.64877
C          4.50172        0.68179       -0.67991
C          3.91663       -0.57869       -0.38760
C          2.57718       -0.61054       -0.03969
C          1.85025        0.54330        0.09606
C          2.44117        1.76880       -0.06233
C          3.77863        1.87498       -0.41002
O          5.76873        0.74489       -1.31463
C          4.67414       -1.91651       -0.43189
H          2.07783       -1.55240        0.11283
H          1.83760        2.65044        0.07373
C          4.39356        3.28306       -0.47972
C         -1.92949       -3.33144        3.62174
C         -2.46298       -5.28165        2.18784
C         -0.09305       -4.89841        2.96109
C         -1.75533       -2.35984       -3.51761
C          0.10569       -4.01220       -3.23608
C         -2.28101       -4.64591       -2.71640
C         -0.08910       -6.03227       -0.35492
H         -1.17148       -2.64484        3.99567
H         -2.78548       -2.74803        3.28435
H         -2.25291       -3.94020        4.46578
H         -2.72382       -5.83511        3.08958
H         -3.36822       -4.81257        1.80372
H         -2.12049       -6.00113        1.44819
H         -0.27255       -5.49201        3.85712
H          0.31359       -5.55743        2.19776
H          0.66744       -4.15384        3.19560
H         -2.03982       -2.71332       -4.50829
H         -2.63221       -1.90187       -3.06073
H         -1.00164       -1.58689       -3.65924
H          0.84491       -3.21148       -3.22737
H          0.51051       -4.84187       -2.66118
H         -0.01940       -4.34466       -4.26621
H         -2.48515       -4.93017       -3.74838
H         -1.94809       -5.53666       -2.18988
H         -3.21653       -4.32042       -2.26271
H         -0.01461       -6.51948       -1.32691
H          0.75819       -5.35846       -0.22069
H         -0.06591       -6.80329        0.41509
C          5.67447        0.72194       -2.72930
C          6.19993       -1.72527       -0.47520
C          4.35662       -2.72826        0.84404
C          4.21897       -2.71955       -1.66220
C          5.93172        3.25099       -0.50353
C          3.87440        4.00452       -1.73453
C          3.98002        4.08681        0.77304
H          6.71783       -2.68180       -0.40883
H          6.51170       -1.24646       -1.40028
H          6.53232       -1.10006        0.35276
H          4.94049       -3.64786        0.87448
H          4.59389       -2.14977        1.73643
H          3.30621       -3.01049        0.89476
H          4.72555       -3.68324       -1.70772
H          3.14589       -2.90621       -1.63007
H          4.43444       -2.18309       -2.58422
H          6.30262        2.78697       -1.41429
H          6.34652        4.25753       -0.45465
H          6.31737        2.68244        0.34197
H          4.16341        3.47564       -2.64055
H          2.78699        4.07167       -1.72322
H          4.27309        5.01683       -1.79504
H          4.26613        3.55697        1.68119
H          2.90570        4.25934        0.80770
H          4.46528        5.06245        0.78610
H          5.19121       -0.19697       -3.05700
H          5.08704        1.56939       -3.07845
H          6.67559        0.77579       -3.15754
