171
-217.83698402
P         -1.67176        0.67041        0.22222
P          1.49126       -0.17681       -0.27463
C         -0.88275        1.90626       -0.83368
C          0.65977       -0.71450       -1.78070
C         -0.18767        1.60920       -2.00001
C          0.48344        2.64871       -2.67147
C          0.41070        3.93781       -2.17116
C         -0.29316        4.21568       -1.01929
C         -0.92973        3.19100       -0.34628
C          0.78329       -2.00845       -2.22273
C          0.13658       -2.41444       -3.37320
C         -0.63698       -1.51499       -4.07756
C         -0.77938       -0.20504       -3.64783
C         -0.10210        0.20849       -2.48493
Cl         1.99161        0.94083        2.84332
Cl        -1.02874        0.10532        3.47842
C         -1.62700        0.75065       -4.41358
C          1.30006        2.39579       -3.89028
H         -0.33698        5.22279       -0.63807
H         -1.46016        3.38763        0.57387
H          1.38627       -2.70439       -1.66606
H          0.23195       -3.43197       -3.71550
H          0.92697        4.72784       -2.69026
H         -1.13904       -1.82930       -4.97670
C         -2.88425       -3.42530       -1.30299
C         -3.50195       -2.29317       -1.82091
C         -3.06916       -1.05473       -1.36610
C         -2.06765       -0.95926       -0.43150
C         -1.48006       -2.09155        0.08326
C         -1.87577       -3.35141       -0.34865
H         -3.21418       -4.39075       -1.63427
H         -3.54207       -0.15527       -1.72051
H         -0.72628       -1.99667        0.84472
C         -5.63657        2.41076        1.55277
C         -4.81929        1.83374        2.51673
C         -3.59934        1.31566        2.10461
C         -3.21915        1.38546        0.78911
C         -4.03591        1.96627       -0.15009
C         -5.27121        2.48737        0.21468
H         -6.58692        2.81240        1.85313
H         -2.92647        0.85677        2.80513
H         -3.69629        2.01334       -1.17091
C          3.87390       -3.68573        1.40462
C          2.93722       -3.08029        2.23301
C          2.19920       -2.02411        1.71911
C          2.40032       -1.57417        0.43558
C          3.35024       -2.17232       -0.35602
C          4.09525       -3.24962        0.10434
H          4.44927       -4.50846        1.78292
H          1.47455       -1.54201        2.34844
H          3.51409       -1.79882       -1.35187
C          4.59608        2.92993       -1.39608
C          4.42741        1.81680       -2.21060
C          3.45942        0.88764       -1.84649
C          2.71078        1.06594       -0.70863
C          2.89332        2.17139        0.08161
C          3.83433        3.13468       -0.25174
H          5.35487        3.64353       -1.65577
H          3.27171        0.02248       -2.45810
H          2.31503        2.27139        0.98243
Pd         0.18415        0.43294        1.61124
C         -4.97894       -3.81289       -3.23386
C         -4.69964       -2.36732       -2.77985
C         -4.42182       -1.51427       -4.02974
C         -5.94704       -1.82573       -2.05688
H         -4.10897       -4.24094       -3.73178
H         -5.24216       -4.44776       -2.38812
H         -5.81123       -3.84305       -3.93700
H         -5.25478       -1.56684       -4.73065
H         -4.27488       -0.46698       -3.76997
H         -3.52848       -1.86736       -4.54295
H         -6.82352       -1.86822       -2.70317
H         -6.15748       -2.41034       -1.16155
H         -5.80559       -0.78925       -1.75205
C         -1.63995       -4.60335        1.79954
C         -1.27294       -4.60492        0.30464
C          0.25711       -4.59747        0.14306
C         -1.81356       -5.90094       -0.33013
H         -1.25528       -3.71463        2.29767
H         -2.72194       -4.61287        1.92927
H         -1.23200       -5.47864        2.30446
H          0.70769       -5.45833        0.63661
H          0.53257       -4.63554       -0.91004
H          0.69477       -3.70091        0.57591
H         -2.89199       -5.98487       -0.19757
H         -1.59051       -5.93707       -1.39640
H         -1.35752       -6.77615        0.13258
C         -5.51292        3.21424        4.49205
C         -5.27883        1.78090        3.98070
C         -4.22553        1.10764        4.88284
C         -6.58726        0.97473        4.07360
H         -5.82139        3.21008        5.53735
H         -4.60042        3.80469        4.41158
H         -6.28929        3.71830        3.91771
H         -4.03905        0.08063        4.56980
H         -3.28159        1.65163        4.85781
H         -4.56312        1.08039        5.91869
H         -6.92890        0.90303        5.10605
H         -7.38166        1.44016        3.49134
H         -6.44316       -0.03682        3.69439
C         -6.47127        4.59242       -0.42768
C         -6.22317        3.12174       -0.80878
C         -7.55645        2.35110       -0.80903
C         -5.63628        3.07700       -2.23388
H         -5.53323        5.14682       -0.40394
H         -7.13156        5.07608       -1.14734
H         -6.93283        4.67392        0.55574
H         -8.04095        2.39628        0.16557
H         -8.24658        2.76589       -1.54353
H         -7.39413        1.30153       -1.05354
H         -6.32493        3.52516       -2.94998
H         -4.69807        3.62882       -2.28984
H         -5.45331        2.05032       -2.55095
C          1.24986       -3.88921        3.90846
C          2.72315       -3.49865        3.69512
C          3.07813       -2.31243        4.61150
C          3.60603       -4.70073        4.08060
H          1.07577       -4.20878        4.93566
H          0.58478       -3.05075        3.70615
H          0.97251       -4.71059        3.24886
H          2.44315       -1.45108        4.40695
H          2.95249       -2.57780        5.66091
H          4.11290       -2.00599        4.46072
H          3.38426       -5.56580        3.45578
H          4.66397       -4.46026        3.97760
H          3.43409       -4.98964        5.11740
C          4.40181       -4.41119       -2.09481
C          5.12225       -3.90105       -0.83217
C          5.83349       -5.09149       -0.16110
C          6.18178       -2.85529       -1.22682
H          3.93163       -3.59425       -2.64111
H          5.10062       -4.90388       -2.77057
H          3.62415       -5.12783       -1.83098
H          6.55243       -5.54619       -0.84256
H          6.37835       -4.77313        0.72745
H          5.11943       -5.86262        0.12762
H          5.73056       -2.01354       -1.75039
H          6.68653       -2.46618       -0.34280
H          6.93539       -3.29065       -1.88279
C          6.76690        1.29261       -2.91303
C          5.34728        1.60028       -3.42178
C          5.37878        2.86630       -4.29996
C          4.86917        0.42175       -4.29348
H          7.15866        2.11957       -2.32147
H          6.76613        0.40317       -2.28330
H          7.45127        1.11898       -3.74325
H          4.38041        3.12080       -4.65299
H          5.77100        3.72327       -3.75438
H          6.01278        2.71557       -5.17361
H          5.50718        0.30519       -5.16941
H          4.89986       -0.51689       -3.74098
H          3.85020        0.58239       -4.64469
C          5.08070        5.32266        0.12327
C          4.00810        4.35638        0.66071
C          4.43102        3.88306        2.06392
C          2.67032        5.11375        0.75142
H          6.05481        4.83702        0.06870
H          4.81812        5.68581       -0.87024
H          5.18146        6.18984        0.77582
H          3.67576        3.23551        2.50770
H          5.36411        3.32225        2.01571
H          4.57914        4.72989        2.73361
H          2.76211        5.99465        1.38637
H          2.34765        5.44148       -0.23643
H          1.88553        4.48329        1.16791
H         -2.32681        0.22835       -5.06687
H          0.85523        2.87137       -4.76557
H         -1.01580        1.39984       -5.04098
H         -2.20824        1.38268       -3.74004
H          1.39880        1.32950       -4.09623
H          2.30444        2.80065       -3.76500
