58
-89.86673133
P          1.70221        0.16658        0.77948
C          3.04864        1.32571        0.52841
C          4.31767        0.86336        0.26517
C          5.34901        1.76324        0.06557
C          5.09981        3.12006        0.13074
C          3.82422        3.57882        0.39489
C          2.79468        2.67638        0.59501
H          1.79136        3.01915        0.79425
H          4.49479       -0.19874        0.21182
C          2.17029       -1.48296        0.24262
C          2.30930       -2.52440        1.13227
C          2.64268       -3.78360        0.66674
C          2.83595       -3.99149       -0.68493
C          2.70049       -2.94343       -1.57331
C          2.36769       -1.68649       -1.10435
H          2.24711       -0.85548       -1.78105
H          2.15602       -2.35528        2.18513
C          1.28242        0.23490        2.56934
C         -0.02298       -0.43973        2.95962
C         -1.26473        0.31528        2.50362
P         -1.71569       -0.04896        0.76183
C         -1.86734       -1.83306        0.60960
C         -2.91720       -2.47141        1.23004
C         -3.03020       -3.84823        1.14897
C         -2.08487       -4.57688        0.45422
C         -1.02787       -3.93298       -0.15719
C         -0.92133       -2.55709       -0.07685
H         -0.09105       -2.04815       -0.53425
H         -3.64307       -1.89002        1.77662
C         -3.28184        0.74502        0.37507
C         -4.20305        0.08686       -0.40760
C         -5.39634        0.70463       -0.73581
C         -5.65589        1.98266       -0.28240
C         -4.72443        2.64444        0.49291
C         -3.53168        2.02375        0.81902
H         -2.78957        2.53835        1.40798
H         -3.98012       -0.90410       -0.76927
Pd        -0.03622        0.73888       -0.63975
Cl         1.52674        1.32870       -2.15046
Cl        -1.70566        1.47179       -1.95901
H         -2.14037        0.03650        3.09528
H         -1.13314        1.39258        2.61545
H         -0.04950       -1.46233        2.56005
H         -0.05130       -0.55652        4.05444
H          2.13382       -0.20429        3.09467
H          1.26025        1.29035        2.84758
H          6.34367        1.40528       -0.14365
H          3.62882        4.63755        0.44100
H          2.74850       -4.60253        1.35917
H          2.85024       -3.10341       -2.62834
H         -3.85338       -4.35031        1.63015
H         -0.28164       -4.49955       -0.68935
H         -6.11820        0.19098       -1.34926
H         -4.92249        3.64579        0.83842
H          5.90183        3.82246       -0.02767
H          3.09351       -4.97352       -1.04686
H         -2.17004       -5.64955        0.39256
H         -6.58372        2.46698       -0.53985
