111
-148.55052264
P         -2.24578        2.23142        1.17584
P          0.07189        0.16042        0.58200
C         -1.23954        1.59388        2.54061
C         -0.22374        0.70327        2.27342
C         -2.53803        4.04825        1.36975
C         -2.05814        4.80888        0.15309
C         -1.47911        1.99500        3.83930
H         -2.27105        2.69737        4.04207
C         -0.70136        1.49393        4.86905
H         -0.88876        1.80484        5.88385
C          0.31439        0.59709        4.59794
H          0.91929        0.20655        5.39965
C          0.55473        0.20056        3.29440
H          1.34196       -0.50018        3.06342
Pd        -1.29689        1.44379       -0.77853
Cl        -2.91091        2.46214       -1.94893
Cl        -0.06176        0.68369       -2.49911
C         -4.06000        4.13680        1.61021
C         -3.98893        1.61146        1.17271
H         -0.99665        4.63004       -0.03509
H         -2.60720        4.49640       -0.73636
H         -2.20508        5.88536        0.26897
H         -4.44601        5.06923        1.17324
H         -4.26517        4.20944        2.68838
H         -4.09382        0.97188        0.28545
C         -4.81218        2.90750        1.02621
C         -4.29310        0.82632        2.43023
H         -1.97695        4.36301        2.26021
H         -5.78893        2.78085        1.51570
H         -5.03282        3.08911       -0.03609
H         -4.19891        1.46066        3.31320
H         -5.31011        0.42707        2.41849
H         -3.60141       -0.01028        2.55104
C         -1.21362       -4.16708       -0.03399
C         -1.60181       -3.48101        1.14589
C         -1.17380       -2.17432        1.31596
C         -0.46909       -1.52885        0.33335
C         -0.21204       -2.14490       -0.86303
C         -0.58563       -3.45804       -1.08905
O         -1.42571       -5.56663       -0.15202
C         -2.45791       -4.13388        2.24287
H         -1.38135       -1.64205        2.22757
H          0.27686       -1.57038       -1.62977
C         -0.28146       -4.10249       -2.45022
C          4.29298        0.94956       -0.92228
C          3.89617       -0.38240       -0.63809
C          2.61066       -0.59838       -0.17105
C          1.76202        0.44940        0.07236
C          2.17645        1.74411       -0.09772
C          3.45054        2.03159       -0.55931
O          5.51450        1.19538       -1.60408
C          4.81439       -1.59018       -0.88170
H          2.24530       -1.59734       -0.01072
H          1.47537        2.53347        0.11500
C          3.87101        3.50180       -0.70883
C         -3.34430       -3.07688        2.94024
C         -3.40909       -5.19131        1.65305
C         -1.53763       -4.77394        3.29299
C          1.08036       -4.81051       -2.38507
C         -1.38265       -5.10428       -2.84126
C         -0.22351       -3.03258       -3.56444
C         -0.36897       -6.36035        0.37295
H         -4.03995       -3.55099        3.63226
H         -2.75177       -2.36941        3.51827
H         -3.92879       -2.52019        2.20824
H         -4.06255       -5.60320        2.42171
H         -4.03411       -4.75334        0.87552
H         -2.85987       -6.01870        1.21133
H         -2.11819       -5.24142        4.08791
H         -0.90146       -5.53560        2.84838
H         -0.88910       -4.02378        3.74500
H          1.33558       -5.25594       -3.34625
H          1.86780       -4.10618       -2.11935
H          1.07887       -5.60123       -1.63918
H         -2.35748       -4.61790       -2.85152
H         -1.20021       -5.52041       -3.83170
H         -1.43070       -5.93345       -2.13940
H         -0.13910       -3.49948       -4.54541
H         -1.12439       -2.41961       -3.56206
H          0.63814       -2.37670       -3.44807
H         -0.00497       -7.03759       -0.39961
H          0.44906       -5.72625        0.71717
H         -0.73763       -6.96094        1.20413
C          5.38948        1.23346       -3.02036
C          6.28853       -1.22446       -0.63113
C          4.46624       -2.74650        0.08341
C          4.62779       -2.08635       -2.32379
C          3.17294        4.37907        0.35572
C          5.38711        3.67247       -0.50416
C          3.46126        4.00480       -2.10163
H          6.93331       -2.09543       -0.74575
H          6.63357       -0.46598       -1.32938
H          6.42090       -0.83453        0.37753
H          3.49025       -3.17652       -0.13679
H          5.19554       -3.55204        0.00045
H          4.46506       -2.40168        1.11711
H          5.24135       -2.96590       -2.51710
H          3.58731       -2.35213       -2.50775
H          4.90375       -1.32025       -3.04388
H          3.33405        3.97683        1.35555
H          3.56513        5.39566        0.33659
H          2.10009        4.44827        0.18226
H          5.95359        3.14496       -1.26718
H          5.67276        4.72309       -0.54975
H          5.68946        3.28041        0.46630
H          2.38411        3.91537       -2.24127
H          3.94351        3.42839       -2.88726
H          3.73390        5.05128       -2.23538
H          6.04947        0.48891       -3.46523
H          4.35919        1.03136       -3.31629
H          5.68803        2.21448       -3.38926
