111
-148.55518601
P         -2.19758        2.25362        1.35314
P          0.07255        0.22457        0.48699
C         -1.15708        1.48391        2.61615
C         -0.19355        0.57615        2.23677
C         -2.27169        4.08887        1.56046
C         -1.46686        4.78240        0.48291
C         -1.34662        1.77450        3.95181
H         -2.10008        2.49020        4.23856
C         -0.57428        1.14028        4.90963
H         -0.72155        1.36444        5.95350
C          0.37736        0.21343        4.52931
H          0.97262       -0.28731        5.27505
C          0.56584       -0.07207        3.18880
H          1.29731       -0.80132        2.87695
Pd        -1.53631        1.41954       -0.69765
Cl        -3.22546        2.63042       -1.54679
Cl        -0.87174        0.42373       -2.59335
C         -3.78285        4.38274        1.52028
C         -3.99241        1.83013        1.54798
H         -0.41696        4.48076        0.51533
H         -1.84936        4.52921       -0.50767
H         -1.51222        5.86907        0.58710
H         -4.06510        4.63228        0.48814
H         -4.01563        5.27899        2.11519
H         -4.34737        1.56511        0.54316
C         -4.61778        3.16248        2.00162
C         -4.20472        0.67909        2.50942
H         -1.86267        4.30591        2.55587
H         -4.67776        3.17008        3.09856
H         -5.65799        3.23563        1.64971
H         -3.65745       -0.21127        2.19361
H         -3.85324        0.93739        3.50935
H         -5.26199        0.41646        2.59042
C         -1.13112       -4.08776       -0.33180
C         -2.12284       -3.09020       -0.14815
C         -1.70877       -1.79979        0.13609
C         -0.37879       -1.47101        0.14482
C          0.58064       -2.40635       -0.14090
C          0.23608       -3.71900       -0.41724
O         -1.50260       -5.45719       -0.39288
C         -3.62819       -3.38156       -0.25084
H         -2.42670       -1.02713        0.34946
H          1.61036       -2.09449       -0.14143
C          1.34152       -4.72329       -0.77901
C          4.37630        0.92786       -0.85874
C          4.02557        1.16396        0.49493
C          2.71355        0.94666        0.88121
C          1.75593        0.58062       -0.02955
C          2.07145        0.46808       -1.35830
C          3.36178        0.67119       -1.81497
O          5.74236        0.91303       -1.24738
C          5.05285        1.61193        1.54646
H          2.42438        1.05426        1.91061
H          1.27953        0.22310       -2.04279
C          3.64267        0.58795       -3.32370
C         -4.38481       -2.13997       -0.77829
C         -3.90519       -4.52695       -1.24142
C         -4.17489       -3.73863        1.13928
C          0.81852       -5.79658       -1.75099
C          2.51585       -4.01004       -1.48709
C          1.86790       -5.38316        0.50419
C         -1.56495       -6.09571        0.87610
H         -4.38266       -1.32650       -0.05478
H         -3.93566       -1.77649       -1.70225
H         -5.42744       -2.38032       -0.98454
H         -3.48086       -4.29889       -2.21864
H         -3.46918       -5.46210       -0.89914
H         -4.97575       -4.68815       -1.36526
H         -5.24563       -3.93682        1.09847
H         -3.68428       -4.62250        1.54026
H         -4.00941       -2.92100        1.84041
H          1.61859       -6.46852       -2.06059
H          0.04034       -6.40160       -1.29227
H          0.39924       -5.33366       -2.64368
H          3.24333       -4.73326       -1.85492
H          2.15718       -3.43351       -2.33898
H          3.04639       -3.33718       -0.81492
H          2.26822       -4.63365        1.18654
H          1.07627       -5.91620        1.02557
H          2.66217       -6.09476        0.28007
H         -0.87896       -6.94249        0.89258
H         -1.29691       -5.39530        1.66811
H         -2.57368       -6.47057        1.04844
C          6.35055       -0.37038       -1.17369
C          4.37223        2.44735        2.65471
C          5.69388        0.37343        2.19053
C          6.13820        2.50325        0.91553
C          3.96092       -0.86614       -3.70250
C          2.40882        1.04888       -4.13335
C          4.80969        1.50890       -3.72345
H          5.11494        2.87368        3.32870
H          3.80023        3.26908        2.22457
H          3.70076        1.84208        3.26197
H          6.41962        0.66034        2.95110
H          4.93613       -0.25007        2.66459
H          6.20681       -0.23502        1.44958
H          5.68814        3.36066        0.41626
H          6.82895        2.87493        1.67197
H          6.72132        1.95651        0.17857
H          4.82499       -1.23697       -3.15627
H          3.11789       -1.51580       -3.47049
H          4.17124       -0.95527       -4.76796
H          1.57758        0.35247       -4.03521
H          2.07271        2.03110       -3.80247
H          2.64520        1.11578       -5.19496
H          5.73988        1.19740       -3.25506
H          4.60972        2.53552       -3.41846
H          4.96481        1.49940       -4.80202
H          6.69995       -0.66781       -2.16221
H          7.21170       -0.32811       -0.50697
H          5.63863       -1.10866       -0.80224
