105
-153.06481228
Cl         0.01451        1.96667        3.05871
Pd        -0.45090        1.32870        0.94385
P         -1.09512        0.50515       -1.16246
N         -0.66855       -0.99989       -1.97249
C          0.23459       -1.99876       -1.61129
C          0.35240       -2.47809       -0.28188
C          1.29259       -3.49157        0.00426
C          1.37719       -4.03840        1.41049
C          2.60859       -4.91586        1.68863
C          2.86988       -5.88383        0.53201
C          3.09962       -5.11004       -0.77378
C          2.07778       -4.02898       -1.02034
C          1.91417       -3.56775       -2.32021
C          1.00884       -2.58248       -2.61279
H          0.90292       -2.22666       -3.62281
H          2.52073       -3.98916       -3.10396
H          4.09575       -4.65200       -0.76167
H          3.72280       -6.54035        0.75570
H          3.48765       -4.27398        1.82802
H          1.36444       -3.20043        2.11575
C         -0.66049       -2.10981        0.73761
C         -0.26132       -1.50050        1.95807
C         -1.21237       -1.35418        2.97218
C         -2.50588       -1.77011        2.79378
C         -2.91815       -2.35655        1.60358
C         -4.34938       -2.82669        1.50202
C         -4.78878       -3.20713        0.07924
C         -3.69769       -4.01549       -0.62719
C         -2.39542       -3.20658       -0.71819
C         -1.99494       -2.52780        0.56985
H         -1.57484       -3.85511       -1.04962
H         -4.03192       -4.33404       -1.62476
H         -4.99289       -2.29684       -0.49771
H         -5.00732       -2.04817        1.90795
H         -3.22314       -1.64464        3.58722
H         -0.91861       -0.88321        3.89382
N          1.03443       -1.00173        2.16242
P          1.62276        0.22187        1.03960
C          2.60495       -0.31964       -0.34615
C          2.38793        0.26825       -1.56747
C          3.18250       -0.07882       -2.64456
C          4.20106       -1.01120       -2.49690
C          4.42413       -1.56709       -1.24360
C          3.62658       -1.22024       -0.16773
H          3.79326       -1.64597        0.80905
H          5.22484       -2.27524       -1.11610
C          5.06039       -1.38379       -3.65397
H          3.01263        0.37078       -3.60777
H          1.59204        0.98613       -1.67196
C          2.57241        1.50582        1.85879
C          3.27576        1.22129        3.00445
C          4.00953        2.21734        3.62317
C          4.04013        3.50250        3.09824
C          3.33825        3.76335        1.92901
C          2.60595        2.76626        1.31047
H          2.05751        2.96628        0.40296
H          3.36725        4.75300        1.50615
C          4.84530        4.57035        3.75311
H          4.56390        2.00145        4.52049
H          3.25546        0.22172        3.40755
H          1.17293       -0.56859        3.06630
H         -0.94014       -0.91965       -2.94443
C         -0.64146        1.87996       -2.23375
C         -0.94204        3.16802       -1.86092
C         -0.58311        4.22750       -2.67175
C          0.07641        4.00489       -3.87235
C          0.37605        2.69889       -4.23479
C          0.01211        1.64215       -3.42063
H          0.25414        0.63132       -3.70234
H          0.89977        2.51468       -5.15730
C          0.49105        5.14778       -4.73228
H         -0.81155        5.23678       -2.37453
H         -1.45724        3.33867       -0.93070
C         -2.89053        0.50222       -1.09161
C         -3.57729        0.68937       -2.26787
C         -4.96105        0.68629       -2.26671
C         -5.66564        0.50760       -1.08417
C         -4.95435        0.31221        0.09104
C         -3.57218        0.30014        0.08345
H         -3.01892        0.14370        0.99524
H         -5.49062        0.17058        1.01360
C         -7.15426        0.48026       -1.08032
H         -5.50212        0.82634       -3.18685
H         -3.02743        0.83897       -3.18407
Cl        -2.26664        2.66562        1.00022
H          3.10417       -5.79897       -1.62820
H          2.49214       -5.46334        2.63463
H          2.00645       -6.55065        0.41368
H          0.46263       -4.60753        1.61511
H         -3.51231       -4.94144       -0.06846
H         -2.49649       -2.43914       -1.49419
H         -4.47668       -3.68907        2.16732
H         -5.73711       -3.76264        0.09674
H          4.51038       -1.30684       -4.59299
H          5.93022       -0.72866       -3.71785
H          5.41725       -2.41080       -3.56377
H          4.90481        4.41324        4.83097
H          5.86202        4.58638        3.35819
H          4.40359        5.55384        3.58679
H          1.46387        5.53206       -4.42269
H          0.56498        4.84792       -5.77852
H         -0.22858        5.96548       -4.67275
H         -7.55190        0.88770       -0.14977
H         -7.56184        1.07196       -1.90113
H         -7.52298       -0.54105       -1.18554
