171
-217.84590874
P         -1.61930        0.41517       -0.38591
P          1.62365       -0.41195       -0.37714
C         -0.89495        1.35277       -1.73435
C          0.90088       -1.36105       -1.71756
C         -0.08633        0.73064       -2.67862
C          0.54648        1.52306       -3.65545
C          0.31285        2.88792       -3.67591
C         -0.51858        3.48090       -2.74951
C         -1.11246        2.70843       -1.77059
C          1.11479       -2.71756       -1.73863
C          0.52404       -3.49834       -2.71288
C         -0.30002       -2.91244       -3.65032
C         -0.53032       -1.54683       -3.64471
C          0.09857       -0.74639       -2.67188
Cl         1.54793        0.41933        2.81622
Cl        -1.57558       -0.45958        2.77911
C         -1.42237       -0.94973       -4.67651
C          1.44768        0.91910       -4.67523
H         -0.69918        4.54285       -2.78417
H         -1.74876        3.16479       -1.02934
H          1.74573       -3.16787       -0.98907
H          0.70174       -4.56109       -2.73569
H          0.79190        3.48804       -4.43109
H         -0.77586       -3.51884       -4.40252
C         -3.88374       -3.32503       -1.53294
C         -2.89810       -3.40842       -0.55670
C         -2.19093       -2.25314       -0.25365
C         -2.47755       -1.07140       -0.89016
C         -3.45951       -1.00220       -1.84703
C         -4.18524       -2.13743       -2.18930
H         -4.44762       -4.20342       -1.78394
H         -1.41810       -2.26873        0.49518
H         -3.65925       -0.05229       -2.31308
C         -4.32051        2.95051        2.22981
C         -4.88797        1.95138        1.44796
C         -4.04336        1.19856        0.64233
C         -2.69496        1.45239        0.61521
C         -2.15260        2.44990        1.38672
C         -2.95575        3.21514        2.22090
H         -4.96355        3.52501        2.86963
H         -4.42884        0.39461        0.04128
H         -1.08888        2.61696        1.35850
C          4.29642       -2.93456        2.27896
C          2.92804       -3.17992        2.27886
C          2.13348       -2.42085        1.43076
C          2.68742       -1.44481        0.64032
C          4.03922       -1.20900        0.65963
C          4.87558       -1.95844        1.47694
H          4.93322       -3.50591        2.92778
H          1.06740       -2.57289        1.40850
H          4.43414       -0.42173        0.04284
C          3.90740        3.30570       -1.55989
C          2.91605        3.40499       -0.59095
C          2.20420        2.25572       -0.27642
C          2.49146        1.06453       -0.89494
C          3.47840        0.97998       -1.84541
C          4.20921        2.10860       -2.19868
H          4.47534        4.17906       -1.81914
H          1.42580        2.28456        0.46621
H          3.67750        0.02366       -2.29843
Pd        -0.00163        0.02969        1.23983
C         -2.45384       -4.46435        1.68639
C         -2.55916       -4.71861        0.16874
C         -1.21599       -5.24458       -0.36141
C         -3.64034       -5.79192       -0.06327
H         -3.37815       -4.03233        2.06907
H         -2.26704       -5.39330        2.22484
H         -1.64133       -3.77989        1.92466
H         -0.92270       -6.16115        0.15007
H         -1.28192       -5.45819       -1.42790
H         -0.42759       -4.50724       -0.21732
H         -3.41774       -6.69408        0.50647
H         -4.62009       -5.43259        0.25121
H         -3.69663       -6.07625       -1.11367
C         -6.65697       -2.39601       -2.48254
C         -5.33236       -2.09948       -3.20919
C         -5.09321       -3.16039       -4.30030
C         -5.44503       -0.71970       -3.88677
H         -6.83848       -1.66182       -1.69800
H         -7.49795       -2.36535       -3.17507
H         -6.64035       -3.38199       -2.01934
H         -5.07796       -4.16593       -3.88208
H         -5.88030       -3.12778       -5.05349
H         -4.14099       -2.99327       -4.80191
H         -6.24752       -0.71556       -4.62427
H         -5.66630        0.05947       -3.15763
H         -4.52130       -0.45821       -4.40190
C         -6.77186        1.25650        2.94601
C         -6.39840        1.68480        1.51535
C         -6.82115        0.56485        0.54322
C         -7.16169        2.96805        1.13904
H         -6.53668        2.03859        3.66697
H         -7.83715        1.03979        3.02344
H         -6.22239        0.36045        3.23408
H         -6.57296        0.82503       -0.48566
H         -6.33002       -0.37622        0.79032
H         -7.89689        0.39631        0.59091
H         -6.94086        3.77925        1.83170
H         -6.88732        3.29875        0.13745
H         -8.23846        2.80031        1.15601
C         -1.29136        3.57881        4.05512
C         -2.30298        4.27239        3.12218
C         -3.34419        5.00784        3.98684
C         -1.57346        5.30772        2.24771
H         -0.81959        4.29778        4.72446
H         -1.78600        2.82228        4.66375
H         -0.50324        3.08403        3.48878
H         -4.07668        5.52265        3.36538
H         -3.87117        4.31369        4.64119
H         -2.86364        5.75516        4.61819
H         -2.26633        5.78621        1.55586
H         -1.11519        6.08404        2.86018
H         -0.78528        4.83895        1.66175
C          1.52685       -5.25827        2.35514
C          2.26314       -4.20774        3.20501
C          1.25533       -3.48139        4.11712
C          3.29510       -4.92993        4.09171
H          0.74599       -4.79666        1.75405
H          2.21748       -5.76156        1.67880
H          1.05833       -6.01366        2.98576
H          1.75496       -2.71275        4.70618
H          0.47207       -2.99558        3.53650
H          0.77666       -4.17837        4.80455
H          3.82853       -4.22336        4.72728
H          2.80559       -5.65413        4.74279
H          4.02292       -5.46985        3.48628
C          6.77560       -1.26957        2.95770
C          6.38995       -1.71271        1.53479
C          6.82486       -0.61282        0.54530
C          7.13290       -3.01218        1.17389
H          7.84406       -1.06631        3.02746
H          6.23966       -0.36218        3.23554
H          6.53325       -2.03819        3.69066
H          6.57022       -0.88444       -0.47904
H          6.34710        0.33823        0.78013
H          7.90290       -0.45816        0.58753
H          8.21210       -2.86033        1.18551
H          6.90199       -3.81042        1.87822
H          6.85059       -3.35239        0.17771
C          1.23595        5.24682       -0.43335
C          2.57460        4.72618        0.11324
C          3.65944        5.79397       -0.12692
C          2.45786        4.49433        1.63364
H          0.94204        6.17231        0.06145
H          1.30854        5.44270       -1.50281
H          0.44482        4.51398       -0.28149
H          3.72337        6.06293       -1.18092
H          3.43479        6.70472        0.42815
H          4.63632        5.43736        0.19935
H          2.27101        5.43175        2.15720
H          1.64066        3.81686        1.87606
H          3.37776        4.06434        2.02903
C          5.47133        0.66623       -3.87355
C          5.36224        2.05367       -3.21116
C          6.68390        2.35067       -2.47945
C          5.13592        3.10421       -4.31505
H          5.68509       -0.10631       -3.13518
H          4.54884        0.40391       -4.39051
H          6.27744        0.65029       -4.60693
H          6.66955        3.34144       -2.02647
H          6.85671        1.62365       -1.68631
H          7.52895        2.30851       -3.16640
H          4.18588        2.93724       -4.82083
H          5.12409        4.11430       -3.90784
H          5.92741        3.05894       -5.06295
H         -2.29013       -1.58519       -4.85453
H          0.93491        0.80720       -5.63146
H         -0.89629       -0.82969       -5.62447
H         -1.78990        0.02961       -4.36701
H          1.80052       -0.06479       -4.36314
H          2.32450        1.54614       -4.83799
