171
-217.84159561
P         -1.61758        0.33838       -0.36856
P          1.60202       -0.37473       -0.32259
C         -0.91140        1.30052       -1.70407
C          0.91005       -1.38132       -1.63236
C         -0.10075        0.67685       -2.64558
C          0.50962        1.46966       -3.63639
C          0.25196        2.83046       -3.67132
C         -0.58198        3.42175       -2.74607
C         -1.15827        2.65040       -1.75678
C          1.15067       -2.73341       -1.61815
C          0.58918       -3.54712       -2.58174
C         -0.22859       -2.99581       -3.54518
C         -0.48549       -1.63477       -3.57337
C          0.11399       -0.79866       -2.61187
Cl         1.60327        0.56854        2.80212
Cl        -1.55689       -0.44723        2.90399
C         -1.38471       -1.08630       -4.62409
C          1.41395        0.87122       -4.65501
H         -0.78005        4.48024       -2.79058
H         -1.80937        3.10280       -1.02672
H          1.78154       -3.15446       -0.85206
H          0.78405       -4.60712       -2.57519
H          0.71445        3.42934       -4.43772
H         -0.68162       -3.62716       -4.29094
C         -4.05122       -3.15135       -1.89374
C         -3.00819       -3.40201       -1.01029
C         -2.26641       -2.31939       -0.55331
C         -2.55704       -1.05126       -0.98900
C         -3.58609       -0.81950       -1.86853
C         -4.36520       -1.87115       -2.33495
H         -4.63974       -3.98250       -2.23356
H         -1.45864       -2.45191        0.14573
H         -3.79112        0.19222       -2.17794
C         -4.19714        2.74328        2.49757
C         -4.75144        1.64434        1.85197
C         -3.95741        0.95489        0.94510
C         -2.66542        1.34934        0.69949
C         -2.13353        2.43492        1.35139
C         -2.88772        3.15045        2.27168
H         -4.79509        3.28718        3.20288
H         -4.34347        0.08545        0.44206
H         -1.10933        2.70913        1.16283
C          4.23522       -2.70476        2.55263
C          2.89856       -3.06289        2.43128
C          2.11789       -2.36558        1.51753
C          2.66160       -1.35616        0.76074
C          3.98610       -1.01958        0.89411
C          4.80165       -1.68326        1.80049
H          4.84050       -3.22742        3.26893
H          1.06956       -2.58497        1.41056
H          4.38330       -0.21562        0.30033
C          3.98308        3.15513       -1.84389
C          2.91833        3.38778       -0.98208
C          2.19363        2.29133       -0.53121
C          2.51431        1.02753       -0.95881
C          3.55842        0.81504       -1.82574
C          4.33076        1.87982       -2.27359
H          4.56237        3.99647       -2.17429
H          1.37694        2.41037        0.15959
H          3.78226       -0.19174       -2.13795
Pd        -0.02145        0.03629        1.33256
C         -2.48124       -5.73727       -1.76981
C         -2.73176       -4.83792       -0.54500
C         -3.94951       -5.35667        0.24083
C         -1.49453       -4.90549        0.36915
H         -3.35426       -5.77741       -2.41986
H         -1.64430       -5.36243       -2.35753
H         -2.24820       -6.75689       -1.46346
H         -3.77825       -6.37075        0.60153
H         -4.14983       -4.72046        1.10280
H         -4.84437       -5.36923       -0.38045
H         -1.29461       -5.93216        0.67561
H         -0.60871       -4.53406       -0.14509
H         -1.64490       -4.31477        1.27246
C         -5.07140       -0.88830       -4.54288
C         -5.55900       -1.58370       -3.25904
C         -6.55117       -0.66440       -2.52422
C         -6.29640       -2.87661       -3.65813
H         -5.91089       -0.63584       -5.19051
H         -4.53644        0.03343       -4.31741
H         -4.40365       -1.53991       -5.10445
H         -6.88921       -1.12752       -1.59739
H         -6.09134        0.29178       -2.27744
H         -7.42753       -0.46297       -3.14003
H         -5.63214       -3.55929       -4.18783
H         -6.69350       -3.38877       -2.78189
H         -7.13535       -2.65494       -4.31772
C         -6.14488       -0.31662        2.56269
C         -6.18318        1.15925        2.12072
C         -7.00981        1.29231        0.83029
C         -6.86771        1.98058        3.23023
H         -5.52438       -0.43531        3.45068
H         -7.14520       -0.67982        2.79750
H         -5.73528       -0.95607        1.78169
H         -8.03489        0.95597        0.98482
H         -7.03956        2.32917        0.49595
H         -6.57839        0.69536        0.02896
H         -7.87493        1.60969        3.41984
H         -6.31072        1.91642        4.16483
H         -6.95236        3.02976        2.94787
C         -3.17174        4.89064        4.11020
C         -2.24905        4.33671        3.00737
C         -1.96483        5.45864        1.99416
C         -0.93256        3.87873        3.66657
H         -3.41641        4.11829        4.83920
H         -2.68772        5.70852        4.64386
H         -4.09984        5.27790        3.69041
H         -2.89038        5.80875        1.53749
H         -1.48132        6.30859        2.47538
H         -1.31412        5.10812        1.19516
H         -0.47323        4.69192        4.22804
H         -1.11463        3.05308        4.35413
H         -0.20987        3.53932        2.92651
C          3.13176       -5.44404        3.20253
C          2.31268       -4.14761        3.34581
C          0.84788       -4.45973        2.98702
C          2.36489       -3.65333        4.80247
H          2.71220       -6.23950        3.81822
H          3.13405       -5.78465        2.16723
H          4.16643       -5.29883        3.51016
H          0.45088       -5.24828        3.62610
H          0.21453       -3.58231        3.11678
H          0.76910       -4.79819        1.95471
H          1.80118       -2.72700        4.91268
H          1.93954       -4.39181        5.48172
H          3.38995       -3.45953        5.11642
C          6.94187       -1.94397        3.15415
C          6.27666       -1.27782        1.93395
C          6.38013        0.25106        2.10578
C          7.02859       -1.70885        0.66361
H          7.97277       -1.60752        3.26403
H          6.41108       -1.69385        4.07262
H          6.96236       -3.02849        3.05001
H          5.79771        0.58091        2.96580
H          7.41472        0.55636        2.26118
H          6.01060        0.77991        1.22834
H          8.07873       -1.42146        0.71272
H          6.97817       -2.78973        0.53353
H          6.59348       -1.24717       -0.22103
C          1.33017        4.86639        0.33822
C          2.60268        4.81891       -0.52739
C          2.38319        5.71509       -1.76075
C          3.78191        5.35567        0.30316
H          1.09704        5.89063        0.62883
H          0.47525        4.47203       -0.20979
H          1.45565        4.28559        1.25148
H          2.11669        6.72910       -1.46314
H          3.28058        5.77511       -2.37504
H          1.57860        5.32372       -2.38210
H          3.58293        6.36773        0.65520
H          3.95811        4.72333        1.17321
H          4.69933        5.37943       -0.28401
C          6.49116        0.62210       -2.46566
C          5.54878        1.61425       -3.17228
C          6.33661        2.90653       -3.46247
C          5.08452        1.01516       -4.51096
H          6.00508       -0.34026       -2.31182
H          7.39010        0.44803       -3.05677
H          6.79621        1.00737       -1.49287
H          6.69300        3.36364       -2.53946
H          7.20677        2.69705       -4.08455
H          5.72056        3.63177       -3.99375
H          4.51635        0.09835       -4.35770
H          4.45355        1.72083       -5.04972
H          5.93689        0.77740       -5.14722
H         -0.84898       -0.94518       -5.56354
H          2.22813        1.55484       -4.89602
H         -1.80731       -0.12607       -4.32510
H         -2.21337       -1.76911       -4.81325
H          0.87541        0.65752       -5.57898
H          1.85636       -0.05907       -4.29596
