111
-148.54975287
P         -2.63648        1.98096        0.07523
P          0.11860        0.44315        0.42438
C         -1.84535        1.90080        1.70712
C         -0.61822        1.28666        1.83913
C         -3.58973        3.55396       -0.14211
C         -2.81356        4.60715       -0.90171
C         -2.46162        2.44531        2.81615
H         -3.43167        2.90337        2.71801
C         -1.84082        2.38293        4.05181
H         -2.32233        2.80898        4.91688
C         -0.60842        1.77205        4.17908
H         -0.12715        1.71926        5.14179
C          0.00149        1.21552        3.06962
H          0.95153        0.71157        3.15641
Pd        -1.01140        1.28913       -1.41604
Cl        -1.98443        2.42790       -3.07713
Cl         0.58938        0.33795       -2.68337
C         -4.87637        3.06433       -0.83000
C         -3.99100        0.74309       -0.18542
H         -3.38537        5.53304       -0.99679
H         -1.86985        4.84023       -0.40332
H         -2.57601        4.26664       -1.90913
H         -4.72198        3.07870       -1.91794
H         -5.70524        3.76292       -0.63815
H         -3.74705        0.21801       -1.11875
C         -5.24325        1.62217       -0.37539
C         -4.07686       -0.22912        0.97105
H         -3.82315        3.91437        0.86743
H         -5.78905        1.66891        0.57686
H         -5.93686        1.15147       -1.08836
H         -4.25155        0.30034        1.90955
H         -4.89232       -0.94316        0.83413
H         -3.14964       -0.79437        1.08220
C         -1.43583       -3.84314        0.46444
C         -0.90536       -3.29744       -0.73210
C         -0.45015       -1.99179       -0.70802
C         -0.42619       -1.26647        0.45311
C         -0.82895       -1.83054        1.63532
C         -1.30921       -3.12847        1.68295
O         -2.13229       -5.08048        0.43511
C         -0.85312       -4.07642       -2.05510
H         -0.12254       -1.50882       -1.61075
H         -0.78853       -1.22892        2.52587
C         -1.72879       -3.72025        3.03738
C          4.64912        0.81164        0.10217
C          3.99610       -0.36805       -0.34191
C          2.61823       -0.43433       -0.22662
C          1.90167        0.57708        0.35695
C          2.53856        1.66874        0.88750
C          3.91742        1.79268        0.82406
O          6.00470        1.04597       -0.24378
C          4.71987       -1.57973       -0.95251
H          2.08198       -1.28175       -0.61718
H          1.94226        2.43483        1.35341
C          4.56854        2.97511        1.56209
C          0.36095       -3.62798       -2.90131
C         -0.69107       -5.58685       -1.80666
C         -2.13674       -3.80336       -2.85357
C         -0.88383       -3.11616        4.18214
C         -3.20775       -3.39553        3.29769
C         -1.50557       -5.24304        3.07021
C         -3.52425       -4.95204        0.17267
H          0.47362       -4.26038       -3.78153
H          0.25180       -2.60440       -3.25614
H          1.28172       -3.69358       -2.32259
H          0.19505       -5.78325       -1.20396
H         -1.54916       -5.99734       -1.28058
H         -0.58988       -6.12991       -2.74597
H         -2.12548       -4.33464       -3.80485
H         -3.01892       -4.11961       -2.30180
H         -2.24075       -2.73880       -3.06254
H          0.18079       -3.21558        3.97204
H         -1.10678       -2.06122        4.33524
H         -1.08818       -3.62530        5.12375
H         -3.36798       -2.31782        3.31834
H         -3.84537       -3.81008        2.52055
H         -3.53431       -3.80290        4.25415
H         -0.46772       -5.48360        2.84224
H         -1.74120       -5.65270        4.05212
H         -2.13323       -5.75179        2.34282
H         -3.77679       -5.49196       -0.73972
H         -4.09250       -5.38746        0.99450
H         -3.79516       -3.90146        0.05968
C          6.14469        1.73580       -1.47467
C          6.23720       -1.54513       -0.70151
C          4.18517       -2.87772       -0.30693
C          4.44821       -1.62217       -2.46576
C          4.29249        4.27634        0.79122
C          3.96386        3.08920        2.97941
C          6.08642        2.79214        1.73612
H          6.44839       -1.44280        0.36234
H          6.71523       -2.45744       -1.05752
H          6.70311       -0.70802       -1.21578
H          3.13284       -3.04077       -0.53288
H          4.73258       -3.74658       -0.67146
H          4.29507       -2.84140        0.77649
H          3.37923       -1.68149       -2.66809
H          4.82810       -0.72917       -2.95826
H          4.92574       -2.48789       -2.92381
H          3.22157        4.44946        0.69018
H          4.72375        5.13356        1.30759
H          4.71825        4.23913       -0.20956
H          4.46149        3.87128        3.55227
H          2.90360        3.33459        2.94959
H          4.07742        2.15119        3.52219
H          6.51117        3.58981        2.34510
H          6.59780        2.80352        0.77654
H          6.30577        1.84102        2.22001
H          5.65969        2.70860       -1.41543
H          7.20419        1.87368       -1.69136
H          5.68367        1.16342       -2.27803
