87
-129.18825107
P         -1.59476       -0.33358       -0.30192
P          1.67428        0.40017        0.01280
C         -1.27098        0.93235       -1.53884
C          1.51370       -0.69368       -1.41395
C         -0.22848        0.78314       -2.44667
C          0.01838        1.81635       -3.37216
C         -0.79055        2.94032       -3.36264
C         -1.82321        3.06618       -2.45815
C         -2.05852        2.05776       -1.54478
C          2.27799       -1.83590       -1.41149
C          2.15755       -2.76126       -2.42914
C          1.25599       -2.54045       -3.44724
C          0.46971       -1.40142       -3.46903
C          0.60520       -0.44876       -2.44044
Cl         1.14815        0.40817        3.22938
Cl        -1.51083       -1.44978        2.64807
H         -2.43966        3.95015       -2.45848
H         -2.86176        2.14957       -0.83275
H          2.97352       -2.00849       -0.60722
H          2.75827       -3.65598       -2.42107
H         -0.59812        3.72730       -4.07197
H          1.14902       -3.26385       -4.23771
C         -1.88380       -4.45517       -2.18619
C         -1.02812       -4.25856       -1.11094
C         -0.97575       -2.99857       -0.52779
C         -1.73466       -1.96617       -1.02769
C         -2.57431       -2.16590       -2.09814
C         -2.65345       -3.41883       -2.67751
H         -1.94155       -5.43079       -2.63791
C         -0.20510       -5.37381       -0.56983
H         -0.33163       -2.82673        0.31796
H         -3.15251       -1.33962       -2.48122
H         -3.30975       -3.58362       -3.51626
C         -5.31633        0.76034        2.08689
C         -5.33431       -0.34554        1.25996
C         -4.20966       -0.67843        0.52892
C         -3.07763        0.09542        0.62962
C         -3.05621        1.19531        1.45621
C         -4.17984        1.55009        2.19232
H         -6.18804        1.01605        2.66484
H         -6.22187       -0.95268        1.18889
H         -4.20604       -1.54512       -0.11131
H         -2.15764        1.78355        1.53909
C         -4.14016        2.72155        3.10913
C          5.47385       -0.57398        2.32889
C          5.39124        0.59855        1.60430
C          4.23653        0.89789        0.90616
C          3.17591        0.02269        0.93332
C          3.25610       -1.14546        1.65628
C          4.40478       -1.45802        2.37285
H          6.37298       -0.81030        2.87203
H          6.22516        1.28092        1.58381
H          4.15654        1.81295        0.34287
H          2.41414       -1.81768        1.68044
C          4.48732       -2.72842        3.14358
C          1.35382        4.82163       -0.98081
C          2.26000        4.03096       -1.66023
C          2.36652        2.68622       -1.35689
C          1.57108        2.14849       -0.37267
C          0.68157        2.93731        0.31975
C          0.54685        4.28546        0.01354
H          1.26595        5.86767       -1.22003
H          2.87817        4.45913       -2.43217
H          3.05437        2.04979       -1.89103
H          0.08579        2.50631        1.10590
C         -0.42672        5.12949        0.75788
Pd        -0.04351       -0.24513        1.44761
C          1.13021        1.72747       -4.35908
C         -0.50288       -1.21306       -4.58135
H          1.68354        2.66641       -4.40675
H          1.83890        0.94229       -4.09355
H          0.74741        1.51331       -5.35764
H          0.00640       -0.90607       -5.49559
H         -1.03747       -2.14058       -4.79098
H         -1.24726       -0.45428       -4.33786
H          0.02996       -6.10337       -1.34611
H          0.73899       -5.00357       -0.16707
H         -0.73347       -5.89122        0.23205
H         -5.13653        3.13905        3.26073
H         -3.74207        2.43513        4.08354
H         -3.50640        3.51323        2.70664
H          3.53174       -2.96002        3.61644
H          4.75136       -3.56159        2.49073
H          5.23934       -2.66532        3.93127
H         -0.02032        5.42829        1.72509
H         -0.67368        6.03443        0.20101
H         -1.35632        4.58658        0.93609
