111
-148.55318444
P         -2.55696        2.09213        0.45757
P          0.05633        0.33521        0.65852
C         -1.86811        1.69983        2.08534
C         -0.71753        0.94623        2.16817
C         -2.97545        3.88878        0.30846
C         -2.14447        4.54844       -0.77057
C         -2.47646        2.15890        3.23587
H         -3.36641        2.76237        3.16301
C         -1.93596        1.84699        4.47141
H         -2.41126        2.20255        5.37102
C         -0.78822        1.08183        4.55254
H         -0.36811        0.83777        5.51439
C         -0.17667        0.63033        3.39671
H          0.71970        0.03294        3.44366
Pd        -1.08596        1.29269       -1.12691
Cl        -2.43867        1.88458       -2.81021
Cl         0.53849        0.48036       -2.45355
C         -4.49219        3.88165        0.01803
C         -4.20742        1.33835        0.09325
H         -1.07537        4.44397       -0.56961
H         -2.34320        4.09182       -1.74158
H         -2.37030        5.61407       -0.85562
H         -4.73386        4.69443       -0.68200
H         -5.05074        4.11026        0.93748
H         -4.03356        0.52937       -0.62953
C         -4.97151        2.51455       -0.54807
C         -4.86575        0.80605        1.34776
H         -2.76117        4.34211        1.28587
H         -6.05211        2.38429       -0.38874
H         -4.82629        2.50148       -1.63846
H         -4.22413        0.08707        1.85942
H         -5.07144        1.61718        2.04814
H         -5.81663        0.31587        1.12553
C         -1.26921       -3.87876       -0.41375
C          0.01427       -3.42506       -0.81267
C          0.39450       -2.14299       -0.45443
C         -0.41082       -1.35997        0.32982
C         -1.60501       -1.83232        0.80847
C         -2.04096       -3.10993        0.49600
O         -1.80474       -5.06860       -0.97399
C          0.96520       -4.26731       -1.67624
H          1.31459       -1.71988       -0.81906
H         -2.20495       -1.17783        1.41607
C         -3.35638       -3.61699        1.10671
C          4.57734        0.80536        0.39284
C          4.02485       -0.18990        1.24285
C          2.64562       -0.31196        1.29874
C          1.83093        0.56327        0.62780
C          2.35956        1.61226       -0.07781
C          3.72924        1.78341       -0.19019
O          5.95531        0.76930        0.05768
C          4.86709       -1.13170        2.12038
H          2.19156       -1.11366        1.85675
H          1.68409        2.28705       -0.57624
C          4.23744        3.01300       -0.96085
C          2.43751       -3.93978       -1.33870
C          0.77137       -5.77226       -1.41702
C          0.71583       -3.94801       -3.15802
C         -4.53188       -3.13032        0.24567
C         -3.37698       -5.15320        1.20910
C         -3.52631       -3.07529        2.54401
C         -2.54797       -4.85152       -2.16724
H          3.11426       -4.61267       -1.86478
H          2.70537       -2.92536       -1.62998
H          2.62030       -4.05017       -0.27060
H          0.89984       -5.99901       -0.35916
H         -0.22267       -6.10071       -1.70984
H          1.49278       -6.36312       -1.98089
H          0.87375       -2.88783       -3.35492
H          1.38991       -4.51542       -3.79909
H         -0.30495       -4.18914       -3.44572
H         -5.48392       -3.45991        0.66079
H         -4.54586       -2.04235        0.19068
H         -4.45739       -3.51077       -0.77086
H         -4.28068       -5.50039        1.70942
H         -3.34712       -5.61796        0.22711
H         -2.51719       -5.51161        1.77408
H         -4.40114       -3.51506        3.02242
H         -2.65494       -3.31584        3.15245
H         -3.66262       -1.99624        2.55891
H         -2.53045       -3.79494       -2.43787
H         -2.11870       -5.44066       -2.97758
H         -3.57997       -5.16999       -2.02137
C          6.22313       -0.05035       -1.06811
C          4.80877       -2.55690        1.54672
C          6.33428       -0.68073        2.22713
C          4.29292       -1.14019        3.55423
C          3.99819        2.80273       -2.46551
C          3.46416        4.26751       -0.49757
C          5.73027        3.28662       -0.70901
H          3.78357       -2.92413        1.52447
H          5.19656       -2.58895        0.53023
H          5.39718       -3.24518        2.15292
H          6.83871       -0.74819        1.26624
H          6.39484        0.35351        2.56413
H          6.88596       -1.30154        2.93270
H          3.28432       -1.54897        3.58371
H          4.90947       -1.74780        4.21617
H          4.25859       -0.12953        3.96011
H          4.54457        1.93661       -2.83344
H          2.94106        2.63876       -2.67242
H          4.32189        3.67204       -3.03716
H          3.54785        4.39393        0.58145
H          3.85984        5.16477       -0.97281
H          2.40666        4.20809       -0.74947
H          6.04618        4.21303       -1.18809
H          6.35011        2.48493       -1.10340
H          5.93096        3.36965        0.35854
H          5.88309       -1.06750       -0.88013
H          5.70340        0.33586       -1.94331
H          7.29618       -0.05801       -1.26052
