64
-97.20905108
Cl        -1.47770       -1.52598       -2.61256
Cl         1.69826       -1.37260       -2.87936
P          1.94552       -0.59296        0.28088
C          2.20760       -2.27015        1.02068
C          3.71353       -0.10874       -0.01951
P         -1.27860       -0.16665        0.38818
C          1.22728        0.59090        1.47308
C         -0.20376        0.81041        1.50510
C         -0.46721        1.91788        2.41340
C          0.80489        2.37821        2.94266
C          1.85452        1.56398        2.35461
H         -1.44490        2.34501        2.64140
H          0.94760        3.19549        3.65313
Pd         0.21728       -0.97588       -1.24845
H          2.92681        1.66140        2.53710
C         -4.89759        2.32930       -0.81225
C         -4.16031        1.68472       -1.78538
C         -3.07460        0.90990       -1.42428
C         -2.71952        0.79434       -0.09953
C         -3.46664        1.41698        0.87460
C         -4.55724        2.19044        0.51880
H         -5.74612        2.93268       -1.09102
H         -4.43487        1.77740       -2.82340
H         -2.51712        0.36718       -2.16852
H         -3.20441        1.28230        1.91139
H         -5.14035        2.68204        1.28018
C         -2.70407       -3.98968        2.38262
C         -2.36848       -2.89493        3.15574
C         -1.93956       -1.72806        2.54867
C         -1.84757       -1.66882        1.17739
C         -2.18581       -2.75363        0.40320
C         -2.61509       -3.92121        1.00584
H         -3.03810       -4.89915        2.85490
H         -2.43954       -2.94875        4.22969
H         -1.67070       -0.86441        3.13600
H         -2.10982       -2.67571       -0.66958
H         -2.87905       -4.77391        0.40211
C          4.06895       -0.09351       -1.48954
H          3.84334        0.89132        0.41460
C          4.50034       -1.16509        0.78113
H          4.69863       -0.79424        1.79744
C          3.72244       -2.50540        0.86519
H          5.48797       -1.31730        0.32187
C          1.73539       -2.28740        2.45826
H          1.63057       -2.98301        0.41572
H          4.08877       -3.11524        1.70360
H          3.91858       -3.09762       -0.04047
H          2.28124       -1.54974        3.04991
H          0.67367       -2.04369        2.53029
H          1.88922       -3.26541        2.92038
H          5.11353        0.18428       -1.64640
H          3.92172       -1.08186       -1.92751
H          3.44798        0.60830       -2.04856
Fe         0.77024        2.45394        0.88651
C         -0.20438        2.81666       -0.89629
C          1.12680        2.28901       -1.12301
C          2.08649        3.19743       -0.52496
C          1.34161        4.27319        0.10583
C         -0.07360        4.03971       -0.12700
H         -1.13903        2.37526       -1.24245
H          1.36526        1.40483       -1.71721
H          3.17382        3.10001       -0.55672
H          1.77201        5.12554        0.63636
H         -0.89475        4.67988        0.20333
