72
-108.40191146
Cl        -1.65038        0.85982        2.72349
Cl         1.00103       -0.85441        2.73737
P          1.12644       -1.10951       -0.31410
P         -2.27571        0.08894       -0.34512
C         -3.25821       -1.51368       -0.07962
C         -3.57844       -1.66129        1.40939
C         -4.54228       -1.47383       -0.89993
C         -3.35216        1.63671       -0.09225
C         -4.20502        1.90562       -1.33793
C         -1.47798        0.37550       -2.03048
C         -1.51003       -0.82601       -2.95036
C          1.11360        0.26071       -1.50482
C         -0.07784        0.96694       -1.97175
C          0.38700        2.06917       -2.81437
C          1.83616        2.02335       -2.86520
C          2.28597        0.87956       -2.09376
C         -2.41325       -2.71073       -0.49635
H         -4.23272       -0.87349        1.77244
H         -4.08492       -2.60894        1.59969
H         -5.22567       -0.70796       -0.53699
H         -5.06698       -2.42864       -0.83744
C         -4.26716        1.50946        1.12148
H         -4.72461        1.01118       -1.67582
H         -3.61041        2.28564       -2.16773
H         -2.11227        1.14698       -2.47709
H         -0.88030       -1.62274       -2.56009
H         -1.11993       -0.57283       -3.93851
H         -2.51951       -1.21391       -3.08727
H         -0.25358        2.74976       -3.37797
H          2.47688        2.69654       -3.43932
Pd        -0.50849       -0.27759        1.16279
H          3.31817        0.57267       -1.91206
C         -2.38381        2.79073        0.11813
H         -4.95987        2.66455       -1.12558
H         -4.75013        2.46389        1.33615
H         -5.06149        0.78503        0.95090
H         -3.71097        1.22189        2.01152
H         -1.65490        2.84329       -0.69178
H         -2.91444        3.74421        0.15626
H         -1.85031        2.67455        1.06003
H         -2.67149       -1.64909        2.01393
H         -4.33668       -1.27794       -1.95177
H         -1.44777       -2.69727        0.00673
H         -2.90752       -3.64517       -0.22578
H         -2.24729       -2.74397       -1.57006
C          2.78645       -1.22491        0.38431
C          3.21685       -2.32197        1.08661
C          4.53200       -2.06509        1.47671
C          4.84881       -0.81996        0.99030
O          3.78585       -0.29360        0.31398
H          2.63245       -3.20458        1.29472
H          5.17182       -2.71551        2.05044
H          5.79812       -0.31418        1.11665
C          0.82571       -2.70849       -1.08456
C          1.20810       -2.99529       -2.37122
C          0.83881       -4.31825       -2.61990
C          0.25192       -4.78442       -1.46865
O          0.23836       -3.80520       -0.51625
H          1.70496       -2.31854       -3.04853
H          0.99037       -4.86805       -3.53440
H         -0.14675       -5.78041       -1.32068
Fe         1.23298        2.17507       -0.91757
C          2.14311        2.04336        0.91490
C          0.83107        2.63467        1.05732
C          0.77542        3.82428        0.22886
C          2.06241        3.97129       -0.42580
C          2.90698        2.86884       -0.00031
H          2.48995        1.13362        1.40833
H          0.05099        2.26404        1.72428
H         -0.06288        4.52039        0.15424
H          2.35332        4.78186       -1.09813
H          3.94439        2.69827       -0.29789
