111
-148.55484082
P         -2.58439        2.02172        0.86225
P          0.11940        0.43489        0.48625
C         -1.50604        1.73542        2.29314
C         -0.29947        1.09444        2.11126
C         -3.45924        3.64930        0.97361
C         -2.82042        4.69275        0.08345
C         -1.88012        2.14973        3.55559
H         -2.83328        2.63134        3.69878
C         -1.03672        1.92918        4.63094
H         -1.32799        2.25282        5.61687
C          0.17563        1.29319        4.44358
H          0.83052        1.11943        5.28149
C          0.54328        0.86893        3.17940
H          1.47671        0.35259        3.01780
Pd        -1.27484        1.56435       -0.98272
Cl        -2.87198        2.44093       -2.28628
Cl         0.03236        0.77668       -2.63701
C         -4.90686        3.27896        0.60230
C         -4.03259        0.87472        0.75500
H         -2.84856        4.38241       -0.96159
H         -3.34009        5.65100        0.15538
H         -1.77291        4.85336        0.34927
H         -5.03660        3.40859       -0.48111
H         -5.61523        3.97878        1.07141
H         -4.04118        0.49252       -0.27468
C         -5.23525        1.80857        0.99040
C         -3.91110       -0.25936        1.74887
H         -3.40651        3.95994        2.02465
H         -5.51403        1.76466        2.05221
H         -6.11582        1.44475        0.43949
H         -3.83232        0.12488        2.76761
H         -4.77916       -0.92145        1.70830
H         -3.01962       -0.85896        1.55497
C         -1.17613       -3.92613        0.19134
C         -1.05723       -3.31716        1.46946
C         -0.64930       -1.99477        1.53028
C         -0.44878       -1.26297        0.38930
C         -0.68835       -1.81179       -0.84178
C         -1.09140       -3.12723       -0.97919
O         -1.29155       -5.33565        0.08075
C         -1.35894       -4.03815        2.79414
H         -0.47332       -1.52214        2.48095
H         -0.53421       -1.19544       -1.71003
C         -1.42313       -3.62648       -2.39477
C          4.51732        0.69319       -0.66436
C          3.80595       -0.52215       -0.82953
C          2.47011       -0.54989       -0.46994
C          1.86164        0.53993        0.09495
C          2.56850        1.68619        0.34679
C          3.91133        1.78088        0.01679
O          5.81981        0.83316       -1.21310
C          4.43744       -1.78919       -1.42714
H          1.87624       -1.42965       -0.64458
H          2.04986        2.51394        0.79894
C          4.67933        3.06468        0.36893
C         -2.13069       -5.35237        2.58341
C         -0.03950       -4.32914        3.52800
C         -2.24317       -3.13523        3.68266
C         -0.12043       -3.78660       -3.19661
C         -2.18868       -4.96052       -2.38068
C         -2.32780       -2.59224       -3.10218
C         -0.03245       -5.98389        0.00688
H         -2.41826       -5.79627        3.53620
H         -3.03555       -5.17757        2.00239
H         -1.52753       -6.08264        2.04923
H         -0.22500       -4.82131        4.48236
H          0.60487       -4.97672        2.93641
H          0.50730       -3.40781        3.72642
H         -3.16483       -2.87156        3.16510
H         -2.51318       -3.64570        4.60676
H         -1.73502       -2.21279        3.95864
H          0.53956       -4.51795       -2.73398
H         -0.32764       -4.11720       -4.21397
H          0.41950       -2.84194       -3.25473
H         -1.57349       -5.76406       -1.98286
H         -3.08100       -4.88467       -1.76029
H         -2.49621       -5.24759       -3.38595
H         -2.64402       -2.95649       -4.07917
H         -3.22162       -2.39512       -2.51099
H         -1.81467       -1.64530       -3.26104
H          0.54555       -5.78197        0.90722
H         -0.18651       -7.05887       -0.08897
H          0.52510       -5.62166       -0.85535
C          5.83466        1.31732       -2.55022
C          5.93431       -1.88060       -1.08087
C          3.76341       -3.05782       -0.85341
C          4.24257       -1.78066       -2.95102
C          6.16057        2.76337        0.66150
C          4.56130        4.06252       -0.79308
C          4.09451        3.71841        1.64172
H          6.49394       -1.05692       -1.51677
H          6.08081       -1.84922       -0.00174
H          6.36723       -2.80786       -1.45535
H          4.29423       -3.95506       -1.17085
H          3.76239       -3.03760        0.23610
H          2.73438       -3.15946       -1.19529
H          3.18311       -1.73699       -3.20280
H          4.72532       -0.91904       -3.40572
H          4.66086       -2.67934       -3.40357
H          6.66779        2.37399       -0.21765
H          6.68914        3.66339        0.97467
H          6.25189        2.02271        1.45525
H          4.98384        3.65424       -1.70791
H          3.51676        4.30294       -0.98970
H          5.08479        4.99077       -0.56562
H          4.04573        2.99959        2.45930
H          3.09368        4.11163        1.47001
H          4.71418        4.55375        1.96710
H          6.40975        2.24189       -2.59786
H          6.31389        0.58511       -3.19980
H          4.81764        1.50236       -2.89844
