111
-148.55199899
P         -2.74004        1.76158       -0.27244
P          0.21112        0.64630        0.12393
C         -1.77851        2.22846        1.19573
C         -0.47754        1.79415        1.33348
C         -3.93156        3.10869       -0.72080
C         -3.75259        3.56712       -2.15102
C         -2.34697        3.01498        2.17798
H         -3.37069        3.33633        2.07852
C         -1.60660        3.37260        3.29147
H         -2.05092        3.98687        4.05758
C         -0.30090        2.94152        3.42313
H          0.27523        3.21731        4.29103
C          0.26288        2.14498        2.44331
H          1.27468        1.78577        2.54145
Pd        -1.17130        0.89001       -1.73341
Cl        -2.76049        0.84717       -3.31013
Cl         0.46243       -0.04115       -2.96003
C         -5.30489        2.46312       -0.43745
C         -3.91148        0.36022        0.02321
H         -4.42320        4.39458       -2.39447
H         -2.72743        3.89446       -2.33883
H         -3.97209        2.75486       -2.84474
H         -6.04878        2.85965       -1.14377
H         -5.65912        2.75910        0.56094
H         -3.55540       -0.48735       -0.57877
C         -5.24504        0.91123       -0.52129
C         -3.95180       -0.01089        1.48940
H         -3.73691        3.94349       -0.03452
H         -6.08259        0.45972        0.03047
H         -5.37584        0.59968       -1.56820
H         -4.28246        0.83689        2.09232
H         -4.63895       -0.83968        1.67582
H         -2.96370       -0.30374        1.84940
C         -1.32151       -3.48571        1.26853
C         -0.97100       -3.21104       -0.07767
C         -0.48552       -1.95222       -0.38118
C         -0.30225       -1.00705        0.59263
C         -0.53037       -1.30537        1.91031
C         -0.99478       -2.55434        2.28806
O         -2.04063       -4.66808        1.58724
C         -1.17194       -4.22401       -1.21429
H         -0.26102       -1.67819       -1.39681
H         -0.36212       -0.53686        2.64438
C         -1.16820       -2.86464        3.78292
C          4.75796        0.87983       -0.02363
C          3.99722        1.40534       -1.09959
C          2.61552        1.35242       -1.01452
C          1.99621        0.72841        0.03610
C          2.72913        0.11670        1.01993
C          4.11361        0.14866        1.00631
O          6.15857        1.10790        0.03917
C          4.64525        2.02451       -2.34846
H          1.99905        1.78697       -1.78196
H          2.19828       -0.39234        1.80597
C          4.89174       -0.58012        2.11303
C         -2.57468       -4.03646       -1.81279
C         -0.12653       -4.00428       -2.33178
C         -0.99604       -5.66769       -0.71059
C         -0.10104       -2.11975        4.61686
C         -2.56044       -2.40614        4.24282
C         -0.98563       -4.36735        4.06368
C         -3.45337       -4.50635        1.55914
H         -3.34716       -4.20019       -1.06511
H         -2.69634       -3.02437       -2.19854
H         -2.74596       -4.73317       -2.63286
H          0.88315       -3.99786       -1.92219
H         -0.18165       -4.79935       -3.07490
H         -0.28896       -3.06478       -2.85790
H         -0.01906       -5.79525       -0.24562
H         -1.75227       -5.92555        0.02662
H         -1.07793       -6.38135       -1.53000
H          0.89986       -2.33281        4.24260
H         -0.25190       -1.04151        4.59711
H         -0.14080       -2.42921        5.66101
H         -2.67822       -1.33170        4.10524
H         -3.34578       -2.90118        3.67630
H         -2.71516       -2.62814        5.29837
H         -1.03956       -4.57610        5.13186
H         -1.75503       -4.95904        3.57418
H         -0.01802       -4.71076        3.69924
H         -3.71410       -3.48573        1.27605
H         -3.88666       -5.20343        0.84202
H         -3.86747       -4.72733        2.54272
C          6.52134        2.31760        0.69266
C          3.74829        1.80730       -3.58912
C          4.82972        3.53409       -2.13353
C          6.00049        1.36209       -2.65679
C          5.15005        0.38998        3.27577
C          4.08442       -1.78475        2.64886
C          6.22447       -1.13375        1.57725
H          4.26186        2.11917       -4.49820
H          3.48459        0.75553       -3.69713
H          2.82756        2.38529       -3.52830
H          5.27757        4.00123       -3.01027
H          3.87066        4.01662       -1.94674
H          5.47276        3.73554       -1.28015
H          6.71915        1.53795       -1.86037
H          5.88357        0.28470       -2.76883
H          6.42817        1.75482       -3.57890
H          5.68948       -0.10365        4.08374
H          5.73878        1.24486        2.95232
H          4.21034        0.76777        3.67821
H          3.76901       -2.43480        1.83310
H          4.68597       -2.37868        3.33660
H          3.19869       -1.46421        3.19533
H          6.74848       -1.70417        2.34374
H          6.88501       -0.33278        1.25426
H          6.05219       -1.78938        0.72436
H          7.17622        2.09451        1.53481
H          7.06541        2.95957        0.00018
H          5.63244        2.83857        1.05061
