111
-148.55137858
P         -2.69173        1.83964        0.02690
P          0.19917        0.55384        0.34416
C         -1.79496        1.98536        1.60144
C         -0.51919        1.47561        1.71638
C         -3.83590        3.27752       -0.21179
C         -3.57287        3.99397       -1.51764
C         -2.38700        2.59799        2.68797
H         -3.39216        2.97716        2.60480
C         -1.69471        2.70684        3.88179
H         -2.15732        3.18628        4.72900
C         -0.41444        2.19916        3.99052
H          0.12298        2.28059        4.92098
C          0.17294        1.57498        2.90503
H          1.16335        1.15331        2.97817
Pd        -1.06090        1.22154       -1.49329
Cl        -2.53648        1.53409       -3.14346
Cl         0.68513        0.43729       -2.67960
C         -5.23230        2.62501       -0.12617
C         -3.89845        0.43767       -0.01200
H         -2.53419        4.32507       -1.58782
H         -3.76649        3.33335       -2.36348
H         -4.21673        4.86917       -1.63247
H         -5.93121        3.16853       -0.77856
H         -5.63452        2.73301        0.89189
H         -3.52393       -0.28697       -0.74837
C         -5.19239        1.11699       -0.50482
C         -4.02311       -0.20793        1.35069
H         -3.66534        3.96129        0.63025
H         -6.06505        0.58967       -0.09232
H         -5.27241        1.01547       -1.59731
H         -4.73315       -1.03830        1.33856
H         -3.06110       -0.59190        1.69537
H         -4.37088        0.51640        2.08960
C         -1.45168       -3.68300        0.60109
C         -0.99787       -3.17583       -0.64503
C         -0.48573       -1.89178       -0.67720
C         -0.35529       -1.14742        0.46494
C         -0.66405       -1.68336        1.68757
C         -1.17249       -2.96729        1.79641
O         -2.25885       -4.84881        0.64117
C         -1.05276       -3.95540       -1.96859
H         -0.19717       -1.44309       -1.61166
H         -0.52505       -1.07556        2.56524
C         -1.39737       -3.53482        3.20780
C          4.74077        0.82448        0.13332
C          3.97356        2.00790        0.30271
C          2.59575        1.88963        0.39325
C          1.98072        0.67300        0.25152
C          2.70792       -0.45083       -0.04160
C          4.08737       -0.40360       -0.15235
O          6.14603        0.85240        0.32578
C          4.58360        3.41807        0.37207
H          1.98276        2.75485        0.58243
H          2.18121       -1.37829       -0.18896
C          4.81514       -1.67857       -0.61062
C          0.31126       -3.84426       -2.68488
C         -1.33010       -5.45349       -1.75690
C         -2.14507       -3.35121       -2.86749
C         -2.60718       -2.84009        3.85481
C         -1.62354       -5.05663        3.19699
C         -0.14296       -3.27072        4.06947
C         -3.64212       -4.55835        0.52641
H          0.53985       -2.81744       -2.96523
H          1.11267       -4.20522       -2.04105
H          0.32012       -4.43912       -3.59776
H         -1.26869       -6.00109       -2.69706
H         -0.60762       -5.88385       -1.06432
H         -2.32360       -5.61608       -1.34586
H         -1.94684       -2.29889       -3.06911
H         -2.19503       -3.87174       -3.82337
H         -3.12381       -3.41939       -2.39620
H         -3.51316       -3.00617        3.27508
H         -2.77969       -3.21806        4.86217
H         -2.44849       -1.76438        3.92431
H         -1.68260       -5.45242        4.21061
H         -2.54992       -5.31397        2.68896
H         -0.80824       -5.56257        2.68103
H          0.74387       -3.69069        3.59558
H          0.02797       -2.20604        4.21971
H         -0.24533       -3.72545        5.05447
H         -4.20694       -5.49080        0.52806
H         -3.96537       -3.94065        1.36264
H         -3.83554       -4.02095       -0.40079
C          6.52084        0.60127        1.66979
C          3.78423        4.36867       -0.54644
C          4.51226        3.93498        1.81825
C          6.04349        3.44873       -0.11319
C          6.26370       -1.40025       -1.04761
C          4.81078       -2.70930        0.53017
C          4.08036       -2.27291       -1.83292
H          4.24494        5.35564       -0.57956
H          3.74885        3.97963       -1.56366
H          2.76051        4.50078       -0.20057
H          3.48225        3.95933        2.17285
H          5.08032        3.29641        2.49215
H          4.91662        4.94422        1.89144
H          6.69104        2.87958        0.54964
H          6.12565        3.01853       -1.11072
H          6.42443        4.46906       -0.14976
H          6.72897       -2.29538       -1.45967
H          6.29208       -0.62071       -1.80814
H          6.87167       -1.06969       -0.20874
H          3.79227       -2.95383        0.83049
H          5.30056       -3.63274        0.22227
H          5.33308       -2.32849        1.40586
H          3.07734       -2.60894       -1.57690
H          4.61883       -3.13245       -2.23118
H          3.99360       -1.53165       -2.62681
H          6.15933       -0.37725        1.98193
H          7.60771        0.62696        1.75078
H          6.09308        1.35886        2.32451
