58
-89.85994412
P          1.62399        0.19246        0.78391
C          2.02415        1.87533        0.30736
C          3.31873        2.22652        0.00205
C          3.60621        3.52526       -0.37749
C          2.59305        4.46137       -0.44997
C          1.29475        4.10256       -0.14564
C          1.01142        2.80342        0.23382
H          0.00103        2.50627        0.46126
H          4.09659        1.48223        0.05512
C          3.10035       -0.84744        0.77053
C          3.78597       -1.10758        1.93723
C          4.92061       -1.89870        1.91186
C          5.36919       -2.42396        0.71675
C          4.68753       -2.15605       -0.45268
C          3.55504       -1.36514       -0.42054
H          3.02712       -1.13158       -1.32895
H          3.43954       -0.69141        2.86828
C          0.89195        0.20721        2.46795
C          0.28168       -1.15633        2.77851
C         -1.20503       -1.24444        2.47027
P         -1.68069       -0.63785        0.79111
C         -3.06731       -1.63943        0.24588
C         -4.31677       -1.07959        0.10780
C         -5.37635       -1.86002       -0.31797
C         -5.17506       -3.19631       -0.60265
C         -3.91914       -3.75343       -0.46254
C         -2.86124       -2.97029       -0.03564
H         -1.87203       -3.38781        0.06947
H         -4.45742       -0.03412        0.32949
C         -2.12608        1.11399        0.77170
C         -2.36888        1.68393       -0.45821
C         -2.66700        3.02997       -0.55614
C         -2.72420        3.80232        0.58595
C         -2.49316        3.22853        1.82022
C         -2.19666        1.88110        1.91334
H         -2.02674        1.43201        2.87706
H         -2.31090        1.06649       -1.34071
Pd         0.02307       -0.39946       -0.80599
Cl         1.58999        0.05572       -2.34462
Cl        -1.58733       -1.06302       -2.22937
H         -1.55938       -2.27527        2.54912
H         -1.78806       -0.66858        3.19054
H          0.82440       -1.92094        2.20290
H          0.45156       -1.42075        3.83444
H          1.68722        0.48030        3.16473
H          0.14804        1.00158        2.52190
H          4.61851        3.80403       -0.61987
H          0.50198        4.82980       -0.20725
H          5.45472       -2.10330        2.82529
H          5.03830       -2.55822       -1.38894
H         -6.35558       -1.42440       -0.43036
H         -3.76099       -4.79493       -0.68948
H         -2.84843        3.47360       -1.52124
H         -2.54326        3.83103        2.71238
H          2.81558        5.47293       -0.74821
H          6.25348       -3.03993        0.69639
H         -5.99909       -3.80486       -0.93780
H         -2.95279        4.85321        0.51445
