105
-153.06666740
Cl        -0.00535        1.92586        3.08984
Pd        -0.49527        1.27370        0.98998
P         -1.11987        0.49945       -1.14510
N         -0.74524       -1.01332       -1.96647
C          0.18057       -2.00021       -1.63019
C          0.32523       -2.48661       -0.30645
C          1.29060       -3.47916       -0.03821
C          1.41909       -4.01026        1.36997
C          2.25195       -5.29538        1.49736
C          3.51746       -5.21591        0.63890
C          3.15410       -5.02121       -0.84044
C          2.08874       -3.97908       -1.07109
C          1.89211       -3.52078       -2.36767
C          0.95441       -2.56127       -2.64521
H          0.82548       -2.20484       -3.65231
H          2.49921       -3.92377       -3.16066
H          4.04658       -4.74879       -1.41841
H          4.13316       -4.37292        0.97709
H          2.50646       -5.49398        2.54806
H          1.86289       -3.22551        1.99328
C         -0.66507       -2.13238        0.73860
C         -0.23051       -1.55019        1.96081
C         -1.15380       -1.42144        3.00285
C         -2.45473       -1.82368        2.84738
C         -2.90160       -2.38204        1.65590
C         -4.33960       -2.83714        1.58178
C         -4.81326       -3.21639        0.16934
C         -3.73667       -4.01474       -0.57014
C         -2.44253       -3.19701       -0.69071
C         -2.00564       -2.54011        0.59627
H         -1.62979       -3.83466       -1.06031
H         -4.09508       -4.33004       -1.56032
H         -5.04019       -2.30623       -0.39921
H         -4.98040       -2.05024        1.99897
H         -3.15114       -1.70943        3.66084
H         -0.83399       -0.97042        3.92580
N          1.06510       -1.03922        2.12869
P          1.59393        0.18504        0.97530
C          2.61966       -0.36745       -0.37472
C          2.42458        0.18790       -1.61437
C          3.25313       -0.16925       -2.66218
C          4.28388       -1.07929       -2.46636
C          4.48459       -1.60092       -1.19472
C          3.65342       -1.24301       -0.14836
H          3.80380       -1.64013        0.84294
H          5.29368       -2.29162       -1.02964
C          5.17961       -1.46343       -3.59160
H          3.10015        0.25467       -3.63978
H          1.61960        0.88886       -1.75509
C          2.51198        1.51260        1.76297
C          3.24799        1.26880        2.89731
C          3.95747        2.29872        3.48811
C          3.93162        3.57691        2.94607
C          3.19844        3.79655        1.78765
C          2.49055        2.76565        1.19695
H          1.91765        2.93359        0.29799
H          3.18371        4.78073        1.35145
C          4.71041        4.68187        3.57053
H          4.53692        2.11490        4.37667
H          3.27238        0.27470        3.31341
H          1.22969       -0.60837        3.02926
H         -1.01794       -0.91419       -2.93620
C         -0.60219        1.87470       -2.18532
C         -0.82361        3.16629       -1.77101
C         -0.40773        4.22714       -2.55223
C          0.22743        4.00269       -3.76560
C          0.44344        2.69303       -4.17163
C          0.02385        1.63495       -3.38653
H          0.20243        0.62070       -3.70158
H          0.94669        2.50688       -5.10507
C          0.70417        5.14382       -4.59511
H         -0.57367        5.23849       -2.22233
H         -1.32823        3.33841       -0.83517
C         -2.91549        0.54647       -1.09598
C         -3.58595        0.84669       -2.25803
C         -4.96921        0.87809       -2.26732
C         -5.68909        0.61913       -1.10902
C         -4.99406        0.30929        0.05126
C         -3.61242        0.26457        0.05326
H         -3.07055        0.02547        0.95385
H         -5.54262        0.10530        0.95472
C         -7.17794        0.63022       -1.11820
H         -5.49802        1.10742       -3.17660
H         -3.02398        1.05630       -3.15480
Cl        -2.30982        2.61097        1.01504
H          2.80934       -5.97188       -1.26445
H          1.64878       -6.15307        1.17410
H          4.14064       -6.11093        0.77650
H          0.41342       -4.17428        1.77722
H         -3.53085       -4.94235       -0.02142
H         -2.57329       -2.41632       -1.44885
H         -4.46317       -3.69639        2.25184
H         -5.75665       -3.77901        0.21047
H          6.04305       -0.79892       -3.64410
H          5.54599       -2.48399       -3.47123
H          4.65533       -1.41155       -4.54692
H          4.22245        5.64467        3.41268
H          4.80933        4.53446        4.64687
H          5.71305        4.73827        3.14452
H          0.70596        4.88662       -5.65526
H          0.06335        6.01748       -4.46802
H          1.71970        5.42772       -4.31573
H         -7.57143       -0.36993       -1.30510
H         -7.57371        0.97463       -0.16175
H         -7.56282        1.29406       -1.89354
