64
-97.20846914
Cl        -1.51641       -1.29364       -2.65179
Cl         1.46993       -2.28220       -2.60054
P          1.94183       -0.63208        0.24715
C          2.29739       -2.27378        1.02110
C          3.64282       -0.16418       -0.30823
P         -1.24467       -0.07950        0.38642
C          1.29930        0.59959        1.43222
C         -0.12721        0.83156        1.51760
C         -0.35337        1.91362        2.46568
C          0.94391        2.36478        2.94040
C          1.96678        1.55188        2.30434
H         -1.32001        2.34283        2.73383
H          1.11919        3.16768        3.66000
Pd         0.19148       -1.06931       -1.21041
H          3.04593        1.63498        2.44848
C         -4.71088        2.66357       -0.70713
C         -3.97182        2.06942       -1.71063
C         -2.93656        1.21299       -1.38676
C         -2.63652        0.96358       -0.06716
C         -3.38530        1.53701        0.93569
C         -4.42444        2.39299        0.61635
H         -5.51927        3.33119       -0.95735
H         -4.20435        2.26695       -2.74421
H         -2.37535        0.71479       -2.15852
H         -3.15858        1.30672        1.96442
H         -5.00850        2.84706        1.39997
C         -2.78842       -3.90061        2.29568
C         -2.83498       -3.74715        0.92360
C         -2.36877       -2.58027        0.34740
C         -1.86195       -1.58015        1.14365
C         -1.81345       -1.72573        2.51049
C         -2.27857       -2.89226        3.09082
H         -3.15054       -4.80989        2.74716
H         -3.22985       -4.53446        0.30273
H         -2.37948       -2.44333       -0.72230
H         -1.41211       -0.92801        3.11505
H         -2.24242       -3.01306        4.16107
C          3.76211       -0.23946       -1.81534
H          3.82654        0.85804        0.04835
C          4.53672       -1.18187        0.42804
H          4.87143       -0.76111        1.38762
C          3.78286       -2.51571        0.68530
H          5.45202       -1.35912       -0.15545
C          2.00510       -2.22511        2.50513
H          1.65227       -3.01114        0.52393
H          4.25787       -3.07876        1.50161
H          3.86505       -3.15717       -0.20427
H          2.61572       -1.46134        2.99096
H          0.95838       -1.97803        2.69575
H          2.22009       -3.18106        2.98859
H          3.01068        0.37852       -2.31106
H          4.74829        0.08276       -2.15753
H          3.61441       -1.26475       -2.15830
Fe         0.82228        2.49721        0.89393
C          0.36846        4.37588        0.21304
C         -0.46975        3.37488       -0.42207
C          0.39296        2.43271       -1.10964
C          1.76656        2.84868       -0.89903
C          1.75316        4.04887       -0.08093
H          0.01865        5.23154        0.79524
H         -1.56091        3.34656       -0.40198
H          0.06020        1.59922       -1.73091
H          2.65404        2.38962       -1.33731
H          2.62902        4.62021        0.23499
