111
-148.54986879
P         -2.54834        2.04197       -0.40988
P          0.05564        0.46790        0.49005
C         -1.88185        2.27652        1.25907
C         -0.73883        1.60672        1.63849
C         -2.89761        3.67601       -1.20673
C         -2.03549        3.88221       -2.43295
C         -2.49942        3.13902        2.14202
H         -3.38043        3.67700        1.83242
C         -1.97868        3.31420        3.41248
H         -2.46197        3.98545        4.10349
C         -0.84001        2.63139        3.79469
H         -0.43512        2.76631        4.78418
C         -0.21767        1.77513        2.90399
H          0.67187        1.23538        3.18722
Pd        -1.10785        0.60644       -1.51183
Cl        -2.46376        0.77044       -3.29044
Cl         0.39301       -0.77705       -2.44134
C         -4.41290        3.61998       -1.49914
C         -4.22915        1.27077       -0.49514
H         -2.25185        3.12490       -3.18765
H         -2.21303        4.85940       -2.88832
H         -0.97275        3.81022       -2.18886
H         -4.61915        4.12501       -2.45380
H         -4.96244        4.19425       -0.73898
H         -4.08727        0.24970       -0.87508
C         -4.94988        2.16073       -1.52807
C         -4.90597        1.24897        0.85839
H         -2.67034        4.44108       -0.45173
H         -6.03358        2.14090       -1.34051
H         -4.81397        1.74355       -2.53680
H         -5.87018        0.73669        0.81720
H         -4.28690        0.74821        1.60424
H         -5.09005        2.26413        1.21350
C         -1.22890       -3.84195        1.13687
C          0.09081       -3.57275        0.69090
C          0.46939       -2.25070        0.52716
C         -0.37848       -1.22761        0.86161
C         -1.61300       -1.48151        1.40144
C         -2.04870       -2.78140        1.60253
O         -1.75152       -5.15925        1.04859
C          1.08369       -4.68276        0.31549
H          1.42068       -2.00098        0.09027
H         -2.24741       -0.64506        1.63861
C         -3.41446       -3.01180        2.26683
C          4.53306        1.19106        0.04471
C          3.64323        1.57236       -0.99131
C          2.28708        1.36990       -0.79751
C          1.81805        0.73331        0.32181
C          2.68376        0.26028        1.27394
C          4.05149        0.44614        1.15126
O          5.89752        1.58196       -0.01060
C          4.12232        2.19680       -2.31156
H          1.57343        1.70201       -1.53167
H          2.27277       -0.26134        2.12075
C          4.98922       -0.12910        2.22467
C          0.82365       -5.96663        1.12432
C          0.96881       -4.97278       -1.18868
C          2.53042       -4.24146        0.62992
C         -4.51731       -2.88767        1.20450
C         -3.49008       -4.39104        2.94706
C         -3.65582       -1.95973        3.37238
C         -2.39707       -5.42981       -0.18986
H         -0.15005       -6.39109        0.89323
H          1.57389       -6.72616        0.90577
H          0.85225       -5.75905        2.19347
H         -0.03139       -5.31311       -1.44748
H          1.17389       -4.07454       -1.77071
H          1.67675       -5.74290       -1.49370
H          3.22938       -5.06175        0.46827
H          2.85113       -3.41791       -0.00602
H          2.61730       -3.92825        1.66974
H         -5.50332       -3.03263        1.64503
H         -4.49679       -1.90261        0.73940
H         -4.38730       -3.62725        0.41697
H         -3.41450       -5.19707        2.22200
H         -2.67853       -4.51027        3.66405
H         -4.43348       -4.51461        3.47836
H         -3.74895       -0.95553        2.96535
H         -4.57644       -2.17267        3.91524
H         -2.83563       -1.95945        4.08974
H         -2.32198       -4.56656       -0.85253
H         -1.93027       -6.29273       -0.66476
H         -3.44795       -5.65995       -0.01553
C          6.15952        2.85585        0.56444
C          3.16746        1.81871       -3.46784
C          4.14667        3.72638       -2.17466
C          5.51862        1.67517       -2.69681
C          5.19434        0.91586        3.33166
C          4.38463       -1.40328        2.85501
C          6.34558       -0.53301        1.61797
H          3.01834        0.74007       -3.51013
H          2.19368        2.29390       -3.35990
H          3.57425        2.13866       -4.42678
H          4.82436        4.04099       -1.38465
H          4.47075        4.19610       -3.10300
H          3.15491        4.10724       -1.93186
H          5.83016        2.06668       -3.66485
H          6.26804        1.96972       -1.96648
H          5.51848        0.58722       -2.75479
H          4.24233        1.18420        3.78915
H          5.84919        0.53287        4.11394
H          5.63940        1.82588        2.93653
H          4.12464       -2.12669        2.08363
H          5.09721       -1.87666        3.53013
H          3.49114       -1.18262        3.43699
H          6.87879        0.33024        1.22765
H          6.20473       -1.23740        0.79880
H          6.98434       -1.00407        2.36469
H          6.87988        2.74920        1.37532
H          6.59020        3.51578       -0.18840
H          5.23929        3.29564        0.95100
