115
-277.93815119
P         -1.58534        0.54525        0.26177
P          2.05476        0.11575        0.01194
C         -2.60004        2.02503        0.15406
C         -3.89843        1.96986        0.61706
H         -4.34320        1.01541        0.85227
C         -4.56797        3.14536        0.90395
H         -5.53417        3.12944        1.38381
C         -3.93804        4.36713        0.72236
C         -2.68730        4.40522        0.12557
H         -2.20097        5.35888       -0.00164
C         -2.01230        3.23470       -0.14682
H         -1.00248        3.26946       -0.52209
C         -2.55282       -0.80761       -0.43736
C         -2.96209       -0.73363       -1.74754
H         -2.70423        0.12991       -2.33767
C         -3.68958       -1.76367       -2.30462
H         -4.02783       -1.71910       -3.32787
C         -3.99768       -2.88014       -1.55394
C         -3.58350       -2.94928       -0.23696
H         -3.83021       -3.82715        0.34051
C         -2.86690       -1.91194        0.32186
H         -2.55311       -1.96675        1.35077
C         -1.22990        0.25368        2.04005
C         -0.47758       -0.88909        2.21907
H         -0.14936       -1.43900        1.35914
C          0.02599       -1.25719        3.46387
C         -0.44267       -0.56993        4.57580
H         -0.10570       -0.85763        5.55765
C         -1.20162        0.57143        4.41553
H         -1.45055        1.16252        5.28068
C         -1.50334        1.07157        3.14782
C          1.85979        0.80621        1.69339
C          1.13365        1.98461        1.70776
H          0.72355        2.36310        0.78694
C          0.78188        2.60833        2.90525
C          1.38782        2.15223        4.07003
H          1.16579        2.63907        5.00495
C          2.13023        0.98853        4.06330
H          2.48482        0.58282        4.99554
C          2.27756        0.23315        2.90053
C         -1.77429        2.55682        3.05795
H         -2.39248        2.86026        3.91145
H         -2.41553        2.76174        2.20509
C         -0.47333        3.43871        2.98905
H         -0.51696        4.12658        2.13840
H         -0.41179        4.09419        3.86505
C          1.29550       -2.06463        3.53581
H          1.17078       -2.97795        2.94472
H          1.43309       -2.41576        4.56420
C          2.55173       -1.24413        3.05913
H          3.38593       -1.38262        3.75551
H          2.91807       -1.62922        2.11010
C          1.92657       -1.67956       -0.17053
C          0.70369       -2.26264       -0.42526
C          3.02587       -2.46871        0.09206
C          0.54254       -3.62018       -0.26099
C          2.86439       -3.82938        0.26466
C          1.60824       -4.40208        0.15257
C          3.56555        0.72746       -0.74503
C          4.07726        1.92549       -0.30484
C          4.20617        0.02038       -1.73574
C          5.24443        2.41518       -0.85253
H          3.56927        2.46999        0.47486
C          5.37360        0.51174       -2.28458
H          3.78777       -0.90929       -2.08649
C          5.89865        1.71172       -1.84618
H          5.67051        3.34286       -0.50591
H          5.90051       -0.03141       -3.05326
Pd         0.20331        0.80269       -1.25018
Cl        -1.36997        1.77336       -2.53961
Cl         1.66344        0.85224       -2.95901
H          3.68407       -4.44776        0.59617
H          3.99150       -2.01240        0.24379
H         -0.43249       -4.07100       -0.35197
H         -0.15343       -1.65523       -0.65954
C         -3.59496        5.56829        2.83204
C         -4.42215        5.56156        1.50605
C         -4.26460        6.87775        0.69116
F         -3.84918        4.41773        3.47011
F         -2.28885        5.61884        2.53693
F         -3.95658        6.61429        3.58688
F         -5.71178        5.42016        1.82119
F         -2.96482        7.12544        0.47815
F         -4.89258        6.70715       -0.48189
F         -4.82800        7.88621        1.37426
C         -4.12111       -5.35953       -1.90975
C         -4.81150       -3.98906       -2.16955
C         -6.25631       -3.93125       -1.59664
F         -4.72577       -6.30463       -2.64635
F         -2.83558       -5.23702       -2.27571
F         -4.19828       -5.65832       -0.60476
F         -4.89018       -3.82048       -3.49249
F         -6.78423       -2.75170       -1.95726
F         -6.97975       -4.93945       -2.10651
F         -6.20509       -4.01339       -0.25906
C          7.17904        3.72081       -2.66694
C          7.22192        2.18875       -2.38891
C          8.33551        1.80179       -1.37371
F          6.09987        3.96517       -3.42527
F          7.07832        4.38607       -1.50781
F          8.29423        4.08150       -3.32045
F          7.49149        1.57473       -3.54425
F          8.34581        0.46349       -1.28164
F          9.52079        2.24643       -1.81696
F          8.04582        2.33434       -0.17739
C          1.00669       -5.40688        2.30145
C          1.36026       -5.73282        0.81678
C          0.23550       -6.53151        0.09766
F         -0.03551       -4.56452        2.32773
F          0.72821       -6.53801        2.96318
F          2.06972       -4.79454        2.84034
F          2.47127       -6.47313        0.80398
F         -0.93544       -5.89611        0.25005
F          0.55332       -6.59723       -1.20415
F          0.17154       -7.76582        0.62150
