72
-98.09255144
Fe         0.04998        2.72794        0.17632
P          1.91900       -0.12559       -0.13167
P         -1.83129       -0.06691       -0.21858
C          1.50896        1.46706        0.67908
C          0.59890        1.61983        1.80095
C          0.54440        3.03249        2.13568
C          1.46231        3.74196        1.26120
C          2.07579        2.77061        0.37082
C         -1.43037        1.67339       -0.65220
C         -1.96268        2.86843       -0.01276
C         -1.34546        4.02898       -0.63105
C         -0.43612        3.55669       -1.65746
C         -0.49504        2.10583       -1.67649
C          3.48116       -0.78201        0.60428
C          4.55098       -0.13853       -0.29572
C          2.52694        0.18281       -1.85498
C          4.05804       -0.00046       -1.76314
C         -2.67248       -0.97312       -1.60707
C         -4.11677       -1.17185       -1.11966
C         -3.24232       -0.07126        0.99882
C         -4.20879       -1.11861        0.42560
H          0.07484        0.80394        2.30118
H         -0.04426        3.47753        2.94135
H          1.67320        4.81363        1.28482
H          2.82497        2.97660       -0.39667
H         -2.69894        2.89386        0.79289
H          0.05463        1.45626       -2.35737
Cl         1.50425       -3.11070        0.52926
Cl        -1.65828       -2.84613        0.77758
Pd         0.02133       -1.43748        0.22366
H          3.47506       -1.86921        0.46687
C          3.61706       -0.43668        2.08282
H          2.28857        1.23593       -2.05156
C          1.83103       -0.71974       -2.87518
H          5.48914       -0.71281       -0.24615
H          4.79319        0.85530        0.10706
H          4.57169        0.83313       -2.26508
H          4.35272       -0.89178       -2.32967
H         -1.54055        5.07297       -0.37597
H          0.17152        4.18249       -2.31494
H          4.64002       -0.66668        2.41212
H          0.74909       -0.54208       -2.82254
H         -2.16401       -1.94168       -1.68923
C         -2.56089       -0.21380       -2.92332
H         -3.70734        0.91910        0.92643
C         -2.80482       -0.33032        2.44661
H         -4.52553       -2.11837       -1.50386
H         -4.74779       -0.38200       -1.54895
H         -5.23895       -0.91234        0.75374
H         -3.95755       -2.10193        0.84488
H         -3.03153        0.77115       -2.80385
H         -1.91270       -0.96946        2.44097
C          2.61189       -1.16387        2.96242
H          2.72082       -0.90043        4.01681
H          1.58750       -0.93065        2.67066
H          2.72612       -2.24613        2.87851
C          2.09577       -2.20848       -2.69789
H          1.85396       -2.53643       -1.68794
H          1.49928       -2.81241       -3.38573
H          3.14096       -2.46470       -2.87432
C         -3.17860       -0.95977       -4.09656
H         -2.70530       -1.93355       -4.23618
H         -4.24322       -1.13987       -3.93760
H         -3.07642       -0.40696       -5.03320
C         -2.54979        0.95021        3.22859
H         -1.85034        1.60282        2.70734
H         -3.47098        1.52162        3.35908
H         -2.14299        0.75207        4.22278
H          3.51258        0.64965        2.20307
H          2.12703       -0.41124       -3.88759
H         -1.50369       -0.00461       -3.13015
H         -3.57616       -0.92349        2.95734
