111
-148.55480398
P         -2.73761        1.79480       -0.28899
P          0.15346        0.61382        0.19233
C         -1.84598        2.19772        1.23811
C         -0.55840        1.73730        1.41220
C         -3.77771        3.21427       -0.86296
C         -3.11166        3.99348       -1.97581
C         -2.44215        2.96228        2.22080
H         -3.45578        3.30365        2.09031
C         -1.74106        3.27153        3.37359
H         -2.20589        3.86859        4.14112
C         -0.44809        2.81493        3.54252
H          0.09682        3.05359        4.44104
C          0.14291        2.04057        2.56081
H          1.14433        1.66126        2.68688
Pd        -1.15329        0.88981       -1.70454
Cl        -2.61905        1.12212       -3.38739
Cl         0.39918       -0.12682       -2.96851
C         -5.09736        2.52311       -1.25100
C         -4.03642        0.48696       -0.10616
H         -2.14499        4.39102       -1.65782
H         -2.93409        3.35852       -2.84415
H         -3.73224        4.83074       -2.30335
H         -5.04971        2.24395       -2.31273
H         -5.93947        3.22702       -1.16680
H         -3.84073       -0.24670       -0.89978
C         -5.34484        1.25028       -0.39092
C         -3.97648       -0.16721        1.25709
H         -3.93389        3.85828        0.01158
H         -5.79960        1.54019        0.56623
H         -6.07714        0.58664       -0.87513
H         -3.01491       -0.65767        1.41815
H         -4.10217        0.57416        2.04833
H         -4.76153       -0.91763        1.37567
C         -1.27583       -3.57131        1.27630
C         -0.88630       -3.28259       -0.05636
C         -0.44421       -2.00415       -0.34462
C         -0.33033       -1.05426        0.63490
C         -0.59601       -1.36143        1.94322
C         -1.02954       -2.62581        2.30507
O         -1.95301       -4.78430        1.57108
C         -0.99275       -4.30670       -1.19599
H         -0.20008       -1.71860       -1.35259
H         -0.48371       -0.58734        2.68191
C         -1.26569       -2.93348        3.79150
C          4.69327        0.90442       -0.00553
C          3.91136        1.44994       -1.05607
C          2.53170        1.38032       -0.95256
C          1.93502        0.72556        0.09243
C          2.68790        0.09740        1.05035
C          4.07172        0.14104        1.01521
O          6.09240        1.14512        0.04048
C          4.53518        2.11019       -2.29603
H          1.89930        1.82665       -1.70023
H          2.17351       -0.43656        1.83084
C          4.87247       -0.61493        2.08711
C          0.08729       -4.04111       -2.26983
C         -0.77033       -5.73929       -0.67904
C         -2.37625       -4.18708       -1.85348
C         -2.69878       -2.53161        4.17239
C         -1.03329       -4.42463        4.09527
C         -0.27735       -2.13632        4.67327
C         -3.36910       -4.69055        1.47691
H         -0.09616       -3.11130       -2.80611
H          1.07754       -3.98689       -1.81848
H          0.10025       -4.83950       -3.01133
H         -0.78403       -6.45800       -1.49802
H          0.19125       -5.81941       -0.17316
H         -1.54369       -6.03090        0.02714
H         -2.52941       -3.18249       -2.24748
H         -2.47943       -4.89239       -2.67760
H         -3.17102       -4.38637       -1.13858
H         -2.85856       -1.46696        4.00325
H         -3.43132       -3.07438        3.57954
H         -2.89588       -2.73875        5.22387
H         -0.03318       -4.72742        3.78686
H         -1.13613       -4.62829        5.16084
H         -1.74824       -5.05305        3.57031
H         -0.47856       -1.06660        4.64096
H         -0.35405       -2.44439        5.71578
H          0.75003       -2.30199        4.34999
H         -3.81723       -4.92950        2.44119
H         -3.66513       -3.68412        1.17816
H         -3.73502       -5.40909        0.74364
C          6.45452        2.33342        0.73240
C          5.88865        1.46497       -2.64568
C          3.61911        1.92612       -3.52804
C          4.71578        3.61344       -2.03793
C          5.13041        0.31735        3.28043
C          4.08747       -1.84926        2.58779
C          6.20668       -1.13128        1.51862
H          6.29867        1.88644       -3.56311
H          6.61938        1.62260       -1.85637
H          5.77584        0.39053       -2.78655
H          2.69643        2.49660       -3.43426
H          4.11590        2.26915       -4.43520
H          3.35939        0.87666       -3.66447
H          5.37137        3.79182       -1.18897
H          5.14751        4.10952       -2.90682
H          3.75751        4.08498       -1.82135
H          4.19015        0.66555        3.70748
H          5.68765       -0.19593        4.06369
H          5.70155        1.19258        2.98046
H          4.70448       -2.45852        3.24787
H          3.20263       -1.56192        3.15390
H          3.77307       -2.47434        1.75235
H          6.74588       -1.72196        2.25877
H          6.85367       -0.31077        1.21822
H          6.03407       -1.75800        0.64432
H          6.99034        3.00095        0.05785
H          5.56589        2.83771        1.11410
H          7.11654        2.08528        1.56186
