171
-217.84589248
P         -1.60445        0.44844       -0.27721
P          1.58744       -0.35975       -0.37649
C         -0.89959        1.43889       -1.60019
C          0.82559       -1.27926       -1.71537
C         -0.12690        0.85719       -2.59982
C          0.49445        1.69404       -3.54668
C          0.29093        3.06234       -3.47890
C         -0.49893        3.61681       -2.49409
C         -1.08517        2.79893       -1.54845
C          1.00119       -2.64020       -1.76404
C          0.39872       -3.38116       -2.76177
C         -0.38623       -2.74867       -3.70283
C         -0.57764       -1.37714       -3.66915
C          0.04808       -0.62003       -2.66011
Cl         1.66967        0.59310        2.80930
Cl        -1.44255       -0.38788        2.95009
C         -1.41632       -0.72561       -4.71252
C          1.37419        1.14213       -4.61352
H         -0.65181        4.68294       -2.45576
H         -1.68765        3.22374       -0.76170
H          1.61376       -3.12445       -1.02075
H          0.54316       -4.44823       -2.80555
H          0.76651        3.69656       -4.20802
H         -0.86146       -3.32309       -4.48005
C         -3.77682       -3.32480       -1.49885
C         -2.83528       -3.38895       -0.47893
C         -2.16115       -2.22201       -0.14649
C         -2.41923       -1.05208       -0.81604
C         -3.35609       -1.00229       -1.81903
C         -4.06104       -2.14576       -2.17748
H         -4.32216       -4.21039       -1.76543
H         -1.44839       -2.21695        0.66035
H         -3.54223       -0.05939       -2.30440
C         -4.49346        2.80968        2.30023
C         -4.99113        1.82694        1.45450
C         -4.08329        1.13230        0.66620
C         -2.74220        1.42105        0.72246
C         -2.26829        2.40011        1.56070
C         -3.13980        3.11332        2.37425
H         -5.17912        3.34369        2.93216
H         -4.41484        0.34576        0.01234
H         -1.20873        2.58607        1.59326
C          4.28263       -2.98442        2.16188
C          2.91093       -3.20416        2.19703
C          2.10938       -2.41543        1.38206
C          2.65848       -1.42457        0.60618
C          4.01322       -1.20400        0.60694
C          4.85728       -1.99016        1.38017
H          4.92676       -3.59803        2.76294
H          1.04335       -2.55909        1.36083
H          4.40675       -0.40398        0.00633
C          3.95779        3.23468       -1.75246
C          2.96308        3.41356       -0.79958
C          2.24464        2.29594       -0.39462
C          2.50206        1.06769       -0.94995
C          3.47490        0.90994       -1.90645
C          4.23191        1.99864       -2.32430
H          4.55137        4.08164       -2.04316
H          1.48446        2.37089        0.36334
H          3.64309       -0.07281       -2.31326
Pd         0.05063        0.08051        1.33110
C         -1.06983       -5.07062        0.08816
C         -2.54077       -4.67587        0.30361
C         -3.43247       -5.84428       -0.15805
C         -2.80021       -4.42785        1.80198
H         -0.39948       -4.27017        0.39603
H         -0.81694       -5.96329        0.65982
H         -0.87879       -5.27836       -0.96398
H         -3.21424       -6.74589        0.41422
H         -4.48784       -5.61133       -0.01763
H         -3.26509       -6.07380       -1.21024
H         -2.60021       -5.32535        2.38696
H         -2.16820       -3.63020        2.18938
H         -3.83760       -4.13913        1.96934
C         -5.31058       -0.74145       -3.89514
C         -5.16947       -2.12930       -3.23998
C         -6.51033       -2.48750       -2.57226
C         -4.84831       -3.16146       -4.33708
H         -6.09351       -0.74979       -4.65335
H         -5.57605        0.01553       -3.15741
H         -4.38435       -0.43851       -4.38131
H         -6.74798       -1.77759       -1.78052
H         -7.32426       -2.46989       -3.29683
H         -6.47868       -3.48250       -2.12980
H         -3.88339       -2.95234       -4.79652
H         -4.81189       -4.17230       -3.93295
H         -5.60540       -3.14493       -5.12090
C         -6.93467        1.04724        2.83065
C         -6.49461        1.51778        1.43240
C         -6.83111        0.40870        0.41539
C         -7.27094        2.78864        1.04166
H         -7.99590        0.79941        2.84328
H         -6.37656        0.16046        3.13051
H         -6.76324        1.81903        3.58010
H         -6.32169       -0.52167        0.66610
H         -7.90173        0.20490        0.40468
H         -6.54081        0.70131       -0.59351
H         -8.34230        2.59329        0.99813
H         -7.10771        3.59006        1.76121
H         -6.95310        3.14756        0.06290
C         -1.12463        4.38701        3.26128
C         -2.64548        4.16788        3.37397
C         -2.96484        3.69218        4.80272
C         -3.35095        5.50853        3.09840
H         -0.85621        4.72486        2.26124
H         -0.78831        5.14534        3.96810
H         -0.57712        3.46980        3.47777
H         -4.03729        3.56621        4.94675
H         -2.48599        2.73376        5.00293
H         -2.60944        4.40941        5.54228
H         -3.15678        5.84258        2.07929
H         -4.42967        5.42364        3.22335
H         -2.99761        6.28199        3.78013
C          0.89109       -3.89556        3.55439
C          2.29366       -4.31181        3.06339
C          3.16254       -4.59062        4.30660
C          2.18487       -5.59365        2.22201
H          0.18465       -3.81847        2.73049
H          0.49044       -4.62801        4.25487
H          0.92874       -2.93083        4.06010
H          4.12661       -5.01812        4.03417
H          3.33926       -3.67351        4.86830
H          2.67106       -5.30128        4.97098
H          1.72284       -6.39931        2.79229
H          1.58452       -5.42136        1.32964
H          3.17038       -5.92837        1.89869
C          6.80706       -0.65450        0.43720
C          6.37651       -1.77104        1.40910
C          7.09007       -3.07253        0.99885
C          6.80082       -1.37049        2.83356
H          6.35134        0.29824        0.70636
H          7.88832       -0.51896        0.45732
H          6.52348       -0.89758       -0.58665
H          6.86575       -3.88398        1.69003
H          6.77727       -3.38481        0.00262
H          8.17139       -2.93669        0.98597
H          7.87412       -1.18843        2.88502
H          6.28784       -0.46081        3.14524
H          6.55946       -2.15274        3.55234
C          3.94730        5.21688        0.62903
C          2.71692        4.80292       -0.19700
C          1.48067        4.80710        0.72256
C          2.48178        5.82242       -1.32763
H          3.80174        6.19718        1.08246
H          4.13307        4.49874        1.42754
H          4.84081        5.26383        0.00730
H          1.29210        5.80698        1.11313
H          0.59097        4.48872        0.17994
H          1.62297        4.14306        1.57486
H          2.26107        6.80971       -0.92225
H          3.35703        5.91632       -1.96897
H          1.64178        5.51852       -1.95100
C          5.23228        2.88932       -4.45925
C          5.38820        1.85784       -3.32500
C          5.42668        0.45001       -3.95112
C          6.71648        2.10494       -2.58733
H          6.03189        2.78342       -5.19226
H          4.28382        2.75811       -4.97794
H          5.26747        3.90941       -4.07943
H          5.60371       -0.31327       -3.19374
H          4.49029        0.22137       -4.45943
H          6.22922        0.37485       -4.68475
H          6.74753        3.10632       -2.15901
H          6.84476        1.39085       -1.77463
H          7.56465        2.00265       -3.26402
H         -1.82854        0.21989       -4.35736
H          0.89170        1.20634       -5.58980
H         -2.25174       -1.36462       -4.99828
H         -0.83205       -0.52348       -5.61108
H          1.62526        0.09725       -4.42683
H          2.30971        1.69888       -4.66588
