111
-148.55001195
P         -1.40359        2.62390        1.23426
P         -0.34365       -0.28515        0.57436
C         -0.93978        1.50161        2.58889
C         -0.54791        0.21112        2.29650
C         -0.22922        4.04068        1.09248
C          0.41263        4.06339       -0.27841
C         -0.93265        1.93683        3.89884
H         -1.18131        2.96067        4.12127
C         -0.56920        1.06898        4.91401
H         -0.56877        1.40922        5.93672
C         -0.19833       -0.22861        4.61847
H          0.09011       -0.90230        5.40849
C         -0.17552       -0.65523        3.30293
H          0.14916       -1.65243        3.04984
Pd        -1.62778        1.22962       -0.59631
Cl        -2.64286        2.94047       -1.63523
Cl        -1.73850       -0.21713       -2.31008
C         -1.12176        5.26368        1.39235
C         -3.01207        3.52753        1.42532
H          1.10055        4.90536       -0.38608
H          0.97271        3.14580       -0.47189
H         -0.34789        4.15378       -1.05647
H         -0.76466        6.12802        0.81355
H         -1.01752        5.55217        2.44876
H         -3.68372        3.11147        0.66181
C         -2.61995        4.98047        1.08334
C         -3.62890        3.36678        2.79839
H          0.52984        3.90139        1.87370
H         -3.26867        5.67651        1.63504
H         -2.81282        5.17644        0.01818
H         -3.73559        2.31318        3.06591
H         -3.01225        3.84611        3.55919
H         -4.61745        3.82917        2.84804
C         -0.87852       -4.74482       -0.18251
C         -1.85375       -4.03427        0.56312
C         -1.64652       -2.68447        0.79920
C         -0.55961       -2.03502        0.27476
C          0.32931       -2.69468       -0.53297
C          0.17731       -4.04143       -0.81597
O         -0.94161       -6.16111       -0.27167
C         -3.11167       -4.71093        1.13039
H         -2.33362       -2.11732        1.40356
H          1.15171       -2.13763       -0.94583
C          1.15376       -4.71542       -1.79289
C          3.58898        1.43273       -0.96001
C          3.31913        1.42160        0.43251
C          2.13822        0.84540        0.86882
C          1.22566        0.34626       -0.02327
C          1.43441        0.45169       -1.37350
C          2.58624        1.02826       -1.87785
O          4.87023        1.82863       -1.42800
C          4.29394        2.01701        1.46014
H          1.90896        0.78656        1.91808
H          0.65320        0.11184       -2.03089
C          2.71403        1.22798       -3.39630
C         -2.80784       -5.25225        2.53552
C         -4.27658       -3.70029        1.23239
C         -3.58910       -5.85180        0.21325
C          0.45659       -5.83842       -2.58200
C          1.67842       -3.69453       -2.82884
C          2.35090       -5.27899       -1.01293
C         -0.23071       -6.84066        0.75538
H         -3.68619       -5.73054        2.96817
H         -2.00447       -5.98453        2.51068
H         -2.50016       -4.44574        3.20076
H         -4.44051       -3.20085        0.27784
H         -5.20235       -4.20377        1.51003
H         -4.08679       -2.94111        1.98964
H         -2.85374       -6.65052        0.15737
H         -4.51928       -6.28587        0.57902
H         -3.76040       -5.48430       -0.79796
H          0.12706       -6.63929       -1.92466
H         -0.41883       -5.45324       -3.10380
H          1.12840       -6.27383       -3.32127
H          0.85242       -3.17313       -3.31207
H          2.33025       -2.95381       -2.36804
H          2.25955       -4.19297       -3.60433
H          3.06678       -5.75162       -1.68497
H          2.86726       -4.48518       -0.47360
H          2.03348       -6.02140       -0.28486
H         -0.91869       -7.46568        1.32439
H          0.52553       -7.48678        0.30992
H          0.24902       -6.12510        1.42433
C          5.78017        0.75094       -1.60712
C          4.99635        3.26192        0.88847
C          3.54566        2.46574        2.73588
C          5.33250        0.95570        1.85217
C          1.32363        1.46674       -4.03027
C          3.57071        2.46455       -3.72317
C          3.33173       -0.02914       -4.02633
H          5.61309        3.00846        0.02942
H          4.26395        4.00230        0.56808
H          5.64287        3.72429        1.63389
H          4.21721        2.99444        3.41194
H          2.72526        3.13810        2.48824
H          3.14160        1.61714        3.28609
H          6.02897        1.34613        2.59378
H          4.84497        0.07772        2.27535
H          5.90876        0.63137        0.98930
H          0.70152        0.57401       -3.98957
H          0.79767        2.27329       -3.51998
H          1.41889        1.74131       -5.08042
H          4.59375        2.34231       -3.37682
H          3.60578        2.64446       -4.79733
H          3.16000        3.35256       -3.24370
H          4.31369       -0.23865       -3.60869
H          3.44099        0.08773       -5.10419
H          2.70186       -0.89926       -3.84442
H          5.33113       -0.18588       -1.27469
H          6.05294        0.67035       -2.65904
H          6.68748        0.94326       -1.03456
