111
-148.55672305
P         -1.67758        2.78530       -0.01175
P         -0.54053       -0.11845        0.51062
C         -1.67981        2.10099        1.67108
C         -1.25207        0.80713        1.88378
C         -0.51906        4.21964       -0.14435
C          0.63631        3.88788       -1.06514
C         -2.08177        2.87519        2.74068
H         -2.38014        3.89739        2.57463
C         -2.07696        2.34148        4.01795
H         -2.39450        2.94459        4.85285
C         -1.66027        1.04028        4.22527
H         -1.65127        0.62745        5.22058
C         -1.23603        0.27325        3.15500
H         -0.87399       -0.73221        3.30206
Pd        -1.30388        0.96081       -1.37882
Cl        -1.96894        2.24876       -3.09011
Cl        -0.86145       -0.89507       -2.56443
C         -1.42199        5.36274       -0.65063
C         -3.27148        3.60802       -0.47134
H          0.27219        3.62923       -2.06151
H          1.32020        4.73345       -1.16992
H          1.20838        3.03385       -0.69681
H         -1.28759        5.46091       -1.73658
H         -1.09595        6.32454       -0.22677
H         -3.44447        3.35466       -1.52554
C         -2.92448        5.10210       -0.34228
C         -4.43592        3.14240        0.37692
H         -0.16776        4.42320        0.87568
H         -3.15526        5.43408        0.67927
H         -3.57104        5.70278       -1.00026
H         -4.27910        3.38430        1.42842
H         -5.36898        3.61903        0.06793
H         -4.56851        2.06034        0.30632
C         -0.85397       -4.65307        0.70081
C          0.28445       -3.99856        1.24193
C          0.34293       -2.61692        1.16327
C         -0.70129       -1.89209        0.65066
C         -1.85587       -2.50989        0.24823
C         -1.98153       -3.88899        0.29715
O         -0.83160       -6.05510        0.48596
C          1.46057       -4.72886        1.91182
H          1.22421       -2.08831        1.48637
H         -2.65810       -1.89972       -0.13180
C         -3.33623       -4.50158       -0.09638
C          3.75116        1.26882       -0.10555
C          3.19400        0.28856       -0.96636
C          1.88486       -0.10489       -0.74947
C          1.17192        0.37022        0.31827
C          1.73696        1.24260        1.21063
C          3.03877        1.68494        1.04854
O          5.00134        1.86435       -0.42135
C          3.96086       -0.31452       -2.15260
H          1.38043       -0.75737       -1.44102
H          1.13606        1.59351        2.03073
C          3.63868        2.63652        2.09518
C          2.68625       -4.68024        0.98405
C          1.80720       -4.02678        3.24346
C          1.12767       -6.19247        2.24972
C         -4.47380       -3.72344        0.60116
C         -3.51771       -4.39980       -1.62010
C         -3.46508       -5.97118        0.34077
C         -0.31170       -6.40625       -0.78579
H          2.97208       -3.65079        0.77032
H          3.54120       -5.17720        1.44172
H          2.48123       -5.17128        0.03469
H          0.93266       -3.97946        3.89174
H          2.59071       -4.56662        3.77466
H          2.16432       -3.01059        3.08489
H          0.97089       -6.77999        1.34834
H          1.93658       -6.65999        2.81066
H          0.21962       -6.25147        2.84875
H         -5.44033       -4.18436        0.39901
H         -4.32598       -3.71234        1.68067
H         -4.52907       -2.69188        0.25770
H         -4.48410       -4.80026       -1.92513
H         -3.46409       -3.36290       -1.95034
H         -2.74362       -4.95444       -2.14662
H         -4.46527       -6.35455        0.14025
H         -2.75830       -6.60421       -0.19035
H         -3.26883       -6.07341        1.40749
H          0.71295       -6.05110       -0.88219
H         -0.32930       -7.49085       -0.89473
H         -0.91339       -5.95519       -1.57300
C          4.90170        3.01903       -1.24602
C          3.48296       -1.75881       -2.42937
C          3.70342        0.53568       -3.40603
C          5.46996       -0.39110       -1.85943
C          3.34111        4.08915        1.69321
C          3.01947        2.37651        3.48760
C          5.15701        2.42303        2.23186
H          3.53103       -2.36299       -1.52392
H          2.46021       -1.78174       -2.80232
H          4.10859       -2.23553       -3.18355
H          4.04257        1.55915       -3.26523
H          4.22338        0.12426       -4.27070
H          2.63867        0.56874       -3.63624
H          5.90009        0.59839       -1.72749
H          5.65505       -0.95942       -0.94850
H          6.00374       -0.87605       -2.67636
H          3.76347        4.32419        0.71933
H          2.26663        4.26108        1.63879
H          3.75734        4.78794        2.41835
H          3.09821        1.32342        3.75642
H          3.53320        2.95684        4.25369
H          1.96907        2.66226        3.52204
H          5.37788        1.38439        2.47564
H          5.57203        3.05209        3.01896
H          5.67671        2.66639        1.30855
H          3.85779        3.23292       -1.47824
H          5.34252        3.87367       -0.73312
H          5.45346        2.85684       -2.17176
