171
-217.84336935
P         -1.62803        0.37934       -0.41421
P          1.60008       -0.41291       -0.31284
C         -0.87114        1.31406       -1.74544
C          0.91466       -1.39572       -1.64849
C         -0.05575        0.67439       -2.67222
C          0.59212        1.45135       -3.65212
C          0.37456        2.81873       -3.68545
C         -0.45874        3.42930       -2.77230
C         -1.07573        2.67115       -1.79687
C          1.12991       -2.75238       -1.63359
C          0.55755       -3.55721       -2.59844
C         -0.24661       -2.99336       -3.56607
C         -0.47769       -1.62779       -3.59692
C          0.13138       -0.80297       -2.63230
Cl         1.45326        0.34700        2.87783
Cl        -1.70081       -0.52691        2.75924
C         -1.35007       -1.05532       -4.65787
C          1.49880        0.83242       -4.65786
H         -0.62549        4.49313       -2.81688
H         -1.72280        3.14032       -1.07366
H          1.74863       -3.18496       -0.86421
H          0.73410       -4.62039       -2.58984
H          0.86882        3.40714       -4.44008
H         -0.70696       -3.61787       -4.31304
C         -3.98700       -3.24026       -1.74381
C         -2.93299       -3.41277       -0.85515
C         -2.21664       -2.28670       -0.47038
C         -2.53564       -1.05379       -0.98158
C         -3.57071       -0.90070       -1.87090
C         -4.33183       -1.99628       -2.26008
H         -4.56053       -4.10308       -2.02524
H         -1.40783       -2.35936        0.23591
H         -3.79575        0.08344       -2.24733
C         -4.23646        2.89339        2.32330
C         -4.81250        1.83049        1.63716
C         -4.00495        1.10004        0.77587
C         -2.67960        1.41909        0.61666
C         -2.12608        2.46725        1.30956
C         -2.89233        3.22090        2.18879
H         -4.84772        3.47615        2.98470
H         -4.40994        0.26314        0.23461
H         -1.08068        2.68556        1.17490
C          4.39167       -2.80894        2.34489
C          3.04345       -3.14905        2.31589
C          2.20811       -2.42944        1.47176
C          2.70216       -1.39933        0.71147
C          4.03261       -1.06804        0.76383
C          4.90873       -1.77015        1.57911
H          5.05294       -3.36084        2.98449
H          1.15783       -2.66160        1.41999
H          4.39103       -0.24355        0.17263
C          3.91109        3.27832       -1.51670
C          2.92397        3.39113       -0.54488
C          2.20129        2.25120       -0.22019
C          2.45915        1.06045       -0.85132
C          3.43849        0.96249       -1.80887
C          4.19091        2.07783       -2.15885
H          4.49787        4.14092       -1.77028
H          1.45060        2.28323        0.55109
H          3.62336        0.00256       -2.26049
Pd        -0.07363       -0.03716        1.27857
C         -3.80703       -5.27994        0.56467
C         -2.62113       -4.80677       -0.29442
C         -1.35429       -4.79199        0.58243
C         -2.39417       -5.79139       -1.45685
H         -3.61251       -6.26391        0.99097
H         -3.98804       -4.58551        1.38497
H         -4.72029       -5.34491       -0.02588
H         -1.12560       -5.79272        0.94859
H         -0.49389       -4.44047        0.01422
H         -1.48354       -4.14619        1.45065
H         -2.12899       -6.78041       -1.08359
H         -3.28807       -5.89750       -2.06999
H         -1.58629       -5.44633       -2.10092
C         -5.04706       -1.27030       -4.55695
C         -5.53429       -1.79434       -3.19503
C         -6.49794       -0.77134       -2.56513
C         -6.30578       -3.10836       -3.42513
H         -4.49593       -0.33700       -4.44719
H         -4.39250       -1.99717       -5.03624
H         -5.88721       -1.08530       -5.22612
H         -7.38553       -0.63827       -3.18340
H         -6.82038       -1.10353       -1.57843
H         -6.02212        0.20219       -2.45551
H         -6.67919       -3.51332       -2.48468
H         -7.16350       -2.94364       -4.07722
H         -5.67254       -3.85820       -3.89895
C         -6.97159        2.24211        2.92379
C         -6.29048        1.44502        1.79447
C         -6.39673       -0.05559        2.13143
C         -7.02557        1.73295        0.47431
H         -6.97874        3.30953        2.70450
H         -8.00763        1.92730        3.04841
H         -6.46122        2.08664        3.87417
H         -5.83297       -0.28688        3.03492
H         -7.43422       -0.34548        2.29667
H         -6.00604       -0.67570        1.32572
H         -8.07834        1.45986        0.54410
H         -6.96560        2.79157        0.22237
H         -6.58570        1.17007       -0.34720
C         -0.87798        3.96234        3.50821
C         -2.25080        4.39034        2.94963
C         -3.12572        4.84209        4.13564
C         -2.07256        5.57213        1.98211
H         -0.44048        4.75367        4.11651
H         -0.97555        3.07264        4.12998
H         -0.17236        3.73755        2.71085
H         -4.07485        5.25456        3.79488
H         -3.33158        4.00822        4.80657
H         -2.62357        5.61851        4.71272
H         -1.58421        6.41261        2.47494
H         -1.46788        5.28447        1.12353
H         -3.03770        5.91244        1.60734
C          2.02952       -5.43392        2.24397
C          2.45377       -4.28072        3.16923
C          1.22757       -3.75478        3.94264
C          3.47460       -4.81574        4.19195
H          1.58463       -6.24998        2.81305
H          1.29893       -5.09678        1.51063
H          2.88800       -5.82778        1.70024
H          1.49980       -2.89624        4.55611
H          0.43117       -3.44253        3.26882
H          0.82058       -4.52401        4.59852
H          3.02589       -5.58621        4.81888
H          4.33600       -5.26059        3.69437
H          3.82580       -4.01815        4.84644
C          6.98318       -1.51081        0.19650
C          6.38797       -1.36065        1.60904
C          7.20325       -2.23451        2.58095
C          6.49658        0.10800        2.06178
H          6.89837       -2.54074       -0.14951
H          6.46576       -0.87436       -0.52033
H          8.03775       -1.23596        0.18569
H          6.82487       -2.14597        3.59916
H          7.16893       -3.28378        2.28834
H          8.24954       -1.92920        2.59034
H          7.53824        0.42371        2.11659
H          5.98287        0.77563        1.37086
H          6.05025        0.24028        3.04711
C          1.17802        5.11899       -0.06781
C          2.63353        4.70072        0.20033
C          3.56222        5.84070       -0.25913
C          2.84221        4.47949        1.71064
H          0.92644        6.03063        0.47376
H          1.02157        5.30284       -1.13014
H          0.48403        4.33927        0.24098
H          3.34078        6.76069        0.28181
H          4.60758        5.59331       -0.07526
H          3.43610        6.04506       -1.32221
H          3.86783        4.17366        1.91600
H          2.64263        5.39282        2.27073
H          2.18219        3.70270        2.09381
C          5.15667        3.04928       -4.26848
C          5.35436        2.00048       -3.15774
C          5.45248        0.60806       -3.81153
C          6.67138        2.28079       -2.41051
H          5.95697        2.99017       -5.00596
H          4.21085        2.89349       -4.78567
H          5.15335        4.06096       -3.86504
H          5.64429       -0.16360       -3.06631
H          4.53438        0.35558       -4.34063
H          6.26885        0.57660       -4.53297
H          7.52470        2.21812       -3.08555
H          6.66856        3.27545       -1.96598
H          6.82071        1.55777       -1.60878
H         -0.77778       -0.84065       -5.56107
H          2.39579        1.43684       -4.79342
H         -1.82102       -0.12893       -4.32592
H         -2.14342       -1.75354       -4.92547
H          1.00591        0.74701       -5.62717
H          1.81678       -0.16457       -4.35006
