111
-148.54638928
P         -2.20807        2.58792        0.44768
P         -0.34673       -0.00116        0.61179
C         -1.94527        1.75067        2.03256
C         -1.13086        0.64096        2.10098
C         -2.24246        4.42840        0.63432
C         -0.98029        5.05923        0.09126
C         -2.56806        2.21855        3.17212
H         -3.22151        3.07345        3.10941
C         -2.35913        1.58115        4.38311
H         -2.84529        1.94595        5.27317
C         -1.52644        0.48090        4.45246
H         -1.35916       -0.01234        5.39582
C         -0.90890        0.01048        3.30742
H         -0.25363       -0.84592        3.34534
Pd        -0.82119        1.53126       -1.11482
Cl        -1.48877        3.13083       -2.56988
Cl         0.46358        0.32543       -2.55489
C         -3.53206        4.82589       -0.10707
C         -3.90510        2.29759       -0.23243
H         -0.09793        4.69022        0.61872
H         -0.85485        4.82468       -0.96673
H         -1.00331        6.14722        0.18770
H         -3.27806        5.07203       -1.14731
H         -3.95303        5.74829        0.32108
H         -3.76873        2.04896       -1.29354
C         -4.57814        3.67506       -0.08987
C         -4.60437        1.17091        0.49795
H         -2.34257        4.63088        1.70842
H         -5.13547        3.70064        0.85655
H         -5.33135        3.81684       -0.87969
H         -4.70234        1.40018        1.56056
H         -5.60820        1.00053        0.10202
H         -4.04357        0.23655        0.41584
C         -1.20633       -4.39057       -0.26653
C         -0.26099       -3.66981       -1.04294
C         -0.07275       -2.32754       -0.76121
C         -0.70499       -1.72449        0.29368
C         -1.53042       -2.44537        1.11717
C         -1.77174       -3.79052        0.89026
O         -1.64249       -5.67208       -0.69060
C          0.58657       -4.28726       -2.16787
H          0.55748       -1.72141       -1.38946
H         -1.99599       -1.94242        1.94646
C         -2.62086       -4.55314        1.92189
C          4.10203        0.84506        0.24963
C          3.69204       -0.24133        1.06795
C          2.33642       -0.50214        1.18816
C          1.41442        0.32450        0.60304
C          1.80210        1.44531       -0.07891
C          3.13811        1.75278       -0.26032
O          5.47015        0.99638       -0.09988
C          4.69276       -1.16479        1.77997
H          1.98226       -1.37027        1.71570
H          0.85716        2.00531       -0.58227
C          3.50835        3.00074       -1.07234
C          2.06033       -3.85747       -1.98954
C          0.56037       -5.82514       -2.14545
C          0.07628       -3.78266       -3.52781
C         -2.14485       -4.19342        3.34730
C         -4.09646       -4.14964        1.76827
C         -2.48655       -6.07903        1.77665
C         -2.75319       -5.61055       -1.56999
H          2.69749       -4.33578       -2.73288
H          2.18569       -2.78154       -2.09939
H          2.42511       -4.13969       -1.00242
H          1.24201       -6.24050       -2.88734
H          0.85409       -6.20005       -1.16563
H         -0.43457       -6.20589       -2.36334
H          0.12336       -2.69549       -3.58259
H          0.67659       -4.18570       -4.34295
H         -0.95771       -4.07873       -3.69416
H         -2.32251       -3.14532        3.58218
H         -2.67295       -4.78581        4.09408
H         -1.07832       -4.38804        3.45692
H         -4.22268       -3.07598        1.90475
H         -4.47345       -4.40515        0.77986
H         -4.71759       -4.65711        2.50592
H         -1.43954       -6.37780        1.81387
H         -3.01729       -6.59806        2.57444
H         -2.89795       -6.42283        0.83059
H         -2.49838       -5.02813       -2.45399
H         -3.02990       -6.62115       -1.87103
H         -3.59884       -5.13944       -1.07175
C          5.84578        0.28993       -1.27593
C          5.03014       -2.35128        0.86412
C          5.97666       -0.40627        2.16271
C          4.08730       -1.71174        3.09273
C          2.43833        4.09807       -0.88942
C          4.84901        3.59429       -0.60600
C          3.57598        2.62995       -2.56170
H          4.13080       -2.91508        0.61786
H          5.47544       -2.01566       -0.06933
H          5.73232       -3.03024        1.34720
H          6.50907       -0.05606        1.28215
H          5.74040        0.46197        2.77695
H          6.65644       -1.04540        2.72565
H          4.83448       -2.26339        3.66287
H          3.72182       -0.89824        3.71888
H          3.26168       -2.39580        2.90266
H          2.27783        4.30734        0.16770
H          2.74557        5.02512       -1.37282
H          1.48802        3.80521       -1.33217
H          5.66997        2.90182       -0.77381
H          5.07814        4.51420       -1.14344
H          4.81757        3.82223        0.45896
H          2.61938        2.23337       -2.90176
H          4.33168        1.87005       -2.74528
H          3.81709        3.50046       -3.17109
H          4.99001       -0.24853       -1.68539
H          6.22305        0.99127       -2.01996
H          6.64144       -0.41670       -1.04051
