111
-148.55379279
P         -2.68461        1.81772        0.72204
P          0.18288        0.48008        0.45425
C         -1.72035        1.43602        2.21095
C         -0.44330        0.93112        2.08710
C         -3.71310        3.33856        0.96363
C         -3.05594        4.58133        0.40449
C         -2.25308        1.65768        3.46529
H         -3.25951        2.03021        3.56047
C         -1.49999        1.38361        4.59378
H         -1.91622        1.55686        5.57277
C         -0.21709        0.88771        4.46701
H          0.36917        0.67242        5.34519
C          0.30984        0.65539        3.20980
H          1.30220        0.24989        3.09710
Pd        -1.19745        1.60623       -1.03785
Cl        -2.56513        2.90168       -2.24891
Cl         0.32639        1.23123       -2.64406
C         -5.04297        2.94168        0.29868
C         -4.01172        0.58987        0.31331
H         -3.67175        5.46785        0.57226
H         -2.07993        4.75386        0.86385
H         -2.89974        4.49168       -0.67026
H         -4.99867        3.21040       -0.76594
H         -5.87392        3.52864        0.71925
H         -3.84327        0.29891       -0.73231
C         -5.30849        1.41474        0.43949
C         -3.94680       -0.61742        1.22364
H         -3.85696        3.44413        2.04616
H         -5.76013        1.21347        1.42049
H         -6.05031        1.07686       -0.29976
H         -2.99354       -1.13917        1.12223
H         -4.04689       -0.31994        2.26910
H         -4.74525       -1.32923        1.00163
C         -1.42287       -3.69808       -0.39015
C         -1.06667       -2.84924       -1.47136
C         -0.56855       -1.59306       -1.17670
C         -0.36433       -1.19349        0.11704
C         -0.57999       -2.05795        1.15779
C         -1.06518       -3.33585        0.93621
O         -2.20995       -4.85480       -0.62411
C         -1.21338       -3.23096       -2.95316
H         -0.34907       -0.89355       -1.96431
H         -0.38627       -1.71589        2.15997
C         -1.17951       -4.27713        2.14618
C          4.71932        0.59521        0.07623
C          4.09507       -0.41074        0.85748
C          2.71178       -0.42131        0.92711
C          1.96538        0.56631        0.33859
C          2.56931        1.60174       -0.32435
C          3.94742        1.66191       -0.45128
O          6.10809        0.51394       -0.21041
C          4.88488       -1.49787        1.60368
H          2.19368       -1.21943        1.43074
H          1.94111        2.35144       -0.77305
C          4.57693        2.84400       -1.20462
C         -1.43699       -4.74010       -3.14982
C         -2.39011       -2.45131       -3.56407
C          0.08263       -2.86239       -3.70893
C         -1.39422       -5.74247        1.72984
C          0.13439       -4.22519        2.95741
C         -2.34339       -3.81999        3.04149
C         -3.60175       -4.59188       -0.55490
H         -2.38775       -5.05587       -2.72693
H         -1.44377       -5.00175       -4.20767
H         -0.64821       -5.31209       -2.66250
H         -2.50478       -2.68505       -4.62211
H         -3.32536       -2.69422       -3.06332
H         -2.23453       -1.37663       -3.47324
H          0.94654       -3.33680       -3.24439
H          0.03455       -3.19261       -4.74622
H          0.25392       -1.78734       -3.71950
H         -0.61490       -6.06381        1.03970
H         -1.37604       -6.40374        2.59583
H         -2.35313       -5.87540        1.23460
H          0.98648       -4.47210        2.32457
H          0.30779       -3.23910        3.38517
H          0.11041       -4.93718        3.78199
H         -3.28943       -3.85271        2.50440
H         -2.43348       -4.45937        3.91923
H         -2.19239       -2.79730        3.38602
H         -3.87481       -3.82902       -1.28229
H         -4.15198       -5.50828       -0.76924
H         -3.86686       -4.23747        0.43982
C          6.41622       -0.24540       -1.37288
C          6.26234       -0.97640        2.05182
C          4.13331       -1.93373        2.88282
C          5.05094       -2.72315        0.69221
C          3.70402        4.11167       -1.06321
C          5.96526        3.18962       -0.63647
C          4.68557        2.49125       -2.69606
H          6.88721       -0.72060        1.20002
H          6.15283       -0.08267        2.66522
H          6.79409       -1.72636        2.63688
H          4.74582       -2.60867        3.48023
H          3.88717       -1.07047        3.50062
H          3.21062       -2.46292        2.64957
H          5.59901       -3.51619        1.20032
H          4.07894       -3.11906        0.39861
H          5.59223       -2.46921       -0.21598
H          4.21035        4.97879       -1.48666
H          2.75578        4.00858       -1.58868
H          3.49594        4.32454       -0.01500
H          5.90178        3.39863        0.43087
H          6.66614        2.37019       -0.77453
H          6.38326        4.06671       -1.12990
H          3.70242        2.27000       -3.11100
H          5.31311        1.61685       -2.84983
H          5.11397        3.31726       -3.26306
H          6.96041        0.37773       -2.08241
H          7.05267       -1.08789       -1.10295
H          5.50198       -0.61453       -1.83940
