105
-153.06800731
Cl        -0.03679        1.83900        3.09841
Pd        -0.52007        1.22314        0.98105
P         -1.13789        0.48691       -1.15611
N         -0.79372       -1.03942       -1.96106
C          0.16009       -2.00393       -1.63499
C          0.32758       -2.48963       -0.31293
C          1.30982       -3.46891       -0.05789
C          1.46014       -4.00428        1.34645
C          2.30314       -5.28420        1.45723
C          3.56122       -5.18811        0.58968
C          3.18547       -4.98384       -0.88529
C          2.10419       -3.95463       -1.10042
C          1.88777       -3.49570       -2.39352
C          0.93258       -2.55032       -2.65916
H          0.78619       -2.19562       -3.66446
H          2.49123       -3.88920       -3.19396
H          4.07037       -4.69341       -1.46616
H          4.17350       -4.34368        0.93042
H          2.56725       -5.48925        2.50432
H          1.90710       -3.21927        1.96707
C         -0.65319       -2.14789        0.74535
C         -0.20816       -1.57207        1.96755
C         -1.12253       -1.44952        3.01839
C         -2.42623       -1.84499        2.86985
C         -2.88412       -2.39393        1.67829
C         -4.32634       -2.83686        1.61136
C         -4.80985       -3.21480        0.20199
C         -3.74116       -4.01917       -0.54238
C         -2.44521       -3.20591       -0.67238
C         -1.99604       -2.55218        0.61196
H         -1.63739       -3.84531       -1.04968
H         -4.10680       -4.33558       -1.52956
H         -5.03507       -2.30371       -0.36592
H         -4.95824       -2.04327        2.02957
H         -3.11640       -1.73212        3.68881
H         -0.79459       -1.00418        3.94125
N          1.08590       -1.05349        2.12526
P          1.59197        0.17724        0.96795
C          2.63172       -0.37154       -0.37339
C          2.42909        0.16153       -1.62145
C          3.26736       -0.19408       -2.66198
C          4.32289       -1.07103       -2.44813
C          4.51823       -1.58577       -1.17284
C          3.67733       -1.22927       -0.13376
H          3.82810       -1.61542        0.86181
H          5.33025       -2.27095       -0.99932
C          5.19995       -1.48993       -3.57575
H          3.10162        0.20387       -3.64839
H          1.60949        0.84229       -1.77501
C          2.48045        1.53147        1.74397
C          3.22382        1.31705        2.87939
C          3.90626        2.37069        3.46019
C          3.85598        3.64037        2.90011
C          3.10104        3.83437        1.75116
C          2.42010        2.77993        1.17053
H          1.83515        2.92673        0.27556
H          3.04578        4.81757        1.31602
C          4.56304        4.78225        3.54323
H          4.48094        2.21284        4.35681
H          3.27172        0.32850        3.30638
H          1.25866       -0.62704        3.02635
H         -1.06752       -0.93800       -2.93012
C         -0.57931        1.85189       -2.18616
C         -0.74975        3.14470       -1.75169
C         -0.29824        4.19997       -2.52069
C          0.33195        3.96806       -3.73536
C          0.47857        2.65797       -4.17021
C          0.02409        1.60527       -3.39741
H          0.15653        0.58958       -3.73015
H          0.95390        2.46716       -5.11725
C          0.80182        5.10426       -4.57543
H         -0.43432        5.21263       -2.18135
H         -1.24551        3.32190       -0.81166
C         -2.93091        0.57820       -1.10029
C         -3.60087        0.93791       -2.24552
C         -4.98294        1.00268       -2.24349
C         -5.70154        0.71614       -1.09086
C         -5.00701        0.34550        0.05186
C         -3.62678        0.27012        0.04292
H         -3.08562       -0.01546        0.93013
H         -5.55473        0.11849        0.95033
C         -7.18974        0.76298       -1.08982
H         -5.51192        1.27938       -3.13941
H         -3.03956        1.16762       -3.13769
Cl        -2.27477        2.63964        1.06086
H          2.85149       -5.93515       -1.31647
H          1.70373       -6.14366        1.13169
H          4.19180       -6.07975        0.71496
H          0.46110       -4.17681        1.76631
H         -3.53513       -4.94610        0.00740
H         -2.58070       -2.42381       -1.42806
H         -4.45443       -3.69355        2.28385
H         -5.75584       -3.77258        0.24865
H          6.20716       -1.72116       -3.22632
H          4.80119       -2.37928       -4.06574
H          5.28225       -0.70110       -4.32476
H          4.88740        5.51282        2.80085
H          3.90943        5.29095        4.25309
H          5.44847        4.44409        4.08334
H          0.01250        5.43994       -5.24938
H          1.10096        5.95258       -3.95820
H          1.66232        4.81669       -5.18121
H         -7.56202        1.48249       -1.82038
H         -7.60806       -0.21410       -1.33555
H         -7.57274        1.05705       -0.11162
