58
-89.86921347
P          1.52390        0.24360        0.80701
C          1.59182        1.96418        0.29092
C          1.59116        2.98998        1.20890
C          1.63620        4.30146        0.77139
C          1.68717        4.57649       -0.58108
C          1.70112        3.54427       -1.49787
C          1.65693        2.23520       -1.05649
H          1.67978        1.41320       -1.75388
H          1.55641        2.76599        2.26241
C          3.13474       -0.53179        0.63976
C          4.25799        0.26272        0.60063
C          5.50741       -0.31737        0.47297
C          5.62149       -1.69075        0.38552
C          4.49161       -2.48374        0.42521
C          3.24372       -1.90083        0.55393
H          2.35379       -2.50908        0.57182
H          4.15144        1.33387        0.66536
C          0.97832        0.05977        2.55807
C          0.24057       -1.25473        2.78075
C         -1.25228       -1.18430        2.49591
P         -1.68703       -0.56825        0.81245
C         -3.22931       -1.32330        0.29052
C         -4.32191       -0.53694        0.00373
C         -5.50568       -1.12562       -0.40287
C         -5.58538       -2.49927       -0.52029
C         -4.48618       -3.28423       -0.23269
C         -3.30373       -2.69234        0.17486
H         -2.43280       -3.29143        0.39003
H         -4.24374        0.53415        0.09600
C         -1.79184        1.22787        0.70675
C         -1.83323        1.78767       -0.55039
C         -1.87802        3.16196       -0.69603
C         -1.88598        3.96936        0.42318
C         -1.85614        3.40511        1.68285
C         -1.81147        2.03036        1.82434
H         -1.80329        1.58741        2.80586
H         -1.82379        1.14171       -1.41464
Pd         0.07718       -0.80418       -0.67638
Cl         1.78246       -0.88779       -2.14050
Cl        -1.36466       -1.72172       -2.12975
H         -1.71347       -2.16976        2.59746
H         -1.75708       -0.53714        3.21459
H          0.69923       -2.02991        2.15173
H          0.39314       -1.59953        3.81552
H          1.88739        0.12464        3.16163
H          0.35363        0.90905        2.83412
H          1.62819        5.10772        1.48635
H          1.74636        3.75637       -2.55337
H          6.38847        0.30217        0.43913
H          4.58020       -3.55516        0.35115
H         -6.36228       -0.51255       -0.63017
H         -4.54633       -4.35574       -0.33010
H         -1.89911        3.59962       -1.68046
H         -1.86536        4.03597        2.55653
H          1.71882        5.59865       -0.92145
H          6.59381       -2.14443        0.28302
H         -6.50611       -2.95938       -0.84011
H         -1.91407        5.04119        0.31348
