64
-97.20971050
Cl        -1.53645       -1.53947       -2.54403
Cl         1.55832       -1.55660       -2.89561
P          1.94959       -0.61517        0.27699
C          2.21569       -2.26063        1.08259
C          3.70901       -0.16795       -0.10567
P         -1.27410       -0.12315        0.41577
C          1.26913        0.62656        1.43102
C         -0.15872        0.86807        1.48164
C         -0.39122        1.99685        2.37101
C          0.90465        2.46228        2.83426
C          1.93276        1.59004        2.29432
H         -1.35524        2.45308        2.59942
H          1.07385        3.29863        3.51608
Pd         0.19207       -1.02944       -1.19618
H          3.00913        1.67406        2.45420
C         -4.88711        2.38715       -0.77302
C         -4.51690        2.28270        0.55319
C         -3.42808        1.50532        0.90588
C         -2.71225        0.84477       -0.06678
C         -3.09735        0.92649       -1.38559
C         -4.18148        1.70477       -1.74381
H         -5.73436        2.99341       -1.04945
H         -5.07522        2.80424        1.31321
H         -3.14332        1.39689        1.93979
H         -2.56392        0.35562       -2.12634
H         -4.47944        1.77094       -2.77739
C         -2.71786       -3.86361        2.54780
C         -2.33577       -2.75810        3.28316
C         -1.90060       -1.61604        2.63478
C         -1.84913       -1.59232        1.26040
C         -2.23302       -2.68795        0.52359
C         -2.66875       -3.83080        1.16768
H         -3.05692       -4.75367        3.05236
H         -2.37572       -2.78418        4.35975
H         -1.59653       -0.74420        3.19204
H         -2.18551       -2.63810       -0.55260
H         -2.96849       -4.69208        0.59356
C          4.00580       -0.23869       -1.58715
H          3.86531        0.85213        0.26912
C          4.51102       -1.19135        0.72238
H          4.74410       -0.77217        1.71221
C          3.72402       -2.51780        0.89762
H          5.48243       -1.37657        0.24112
C          1.78069       -2.21119        2.53108
H          1.61645       -2.99282        0.52409
H          4.10869       -3.08686        1.75622
H          3.88993       -3.15826        0.01914
H          2.34854       -1.45462        3.07630
H          0.72341       -1.95357        2.61938
H          1.93722       -3.17006        3.03086
H          5.04800        0.00990       -1.79941
H          3.82357       -1.24604       -1.96486
H          3.37513        0.44413       -2.15885
Fe         0.81965        2.46740        0.76845
C          2.11063        3.12754       -0.68257
C          1.41730        4.26115       -0.09523
C         -0.00826        4.03686       -0.26259
C         -0.18951        2.79341       -0.98931
C          1.12083        2.23276       -1.25247
H          3.19438        3.00586       -0.74502
H          1.88256        5.11901        0.39493
H         -0.80623        4.70618        0.06717
H         -1.14423        2.36575       -1.29590
H          1.32332        1.32537       -1.82425
