111
-148.55428380
P         -1.59994        2.74527       -0.29288
P         -0.53162       -0.13824        0.43812
C         -1.76215        2.12784        1.40641
C         -1.35797        0.84428        1.70712
C         -0.40562        4.15455       -0.36635
C          0.83210        3.76594       -1.14610
C         -2.25769        2.94363        2.40334
H         -2.53483        3.95884        2.17091
C         -2.37139        2.46123        3.69578
H         -2.76243        3.09660        4.47362
C         -1.97760        1.17022        3.99149
H         -2.06021        0.79697        4.99898
C         -1.45851        0.36259        2.99565
H         -1.11284       -0.63496        3.21680
Pd        -1.16651        0.85737       -1.55490
Cl        -1.59511        2.12311       -3.35380
Cl        -0.54560       -1.06948       -2.53538
C         -1.22999        5.28729       -1.01029
C         -3.12806        3.57825       -0.92709
H          1.53366        4.59987       -1.22321
H          1.35178        2.92851       -0.67635
H          0.56826        3.45804       -2.15990
H         -0.99289        5.32759       -2.08229
H         -0.92249        6.26301       -0.60476
H         -3.21129        3.28174       -1.98098
C         -2.76009        5.06979       -0.83180
C         -4.37557        3.17320       -0.17075
H         -0.15632        4.39836        0.67480
H         -3.07597        5.45242        0.14841
H         -3.32915        5.65196       -1.57273
H         -4.52517        2.09166       -0.20567
H         -4.31141        3.46042        0.87897
H         -5.26538        3.65180       -0.58600
C         -1.06465       -4.64477        0.85782
C          0.21725       -4.10844        0.56672
C          0.33700       -2.73532        0.43781
C         -0.73090       -1.90386        0.65148
C         -1.94376       -2.40925        1.04130
C         -2.13171       -3.77281        1.20336
O         -1.29655       -6.03848        0.73097
C          1.48474       -4.95986        0.38115
H          1.27748       -2.29816        0.15196
H         -2.75325       -1.72070        1.21696
C         -3.47968       -4.25147        1.76987
C          3.76500        1.35699        0.15459
C          3.26072        0.47391       -0.83380
C          1.95412        0.03578       -0.71345
C          1.18861        0.36991        0.37174
C          1.70238        1.14538        1.37742
C          2.99959        1.62625        1.31810
O          5.01433        2.00425       -0.04014
C          4.07713        0.03304       -2.05775
H          1.49185       -0.53789       -1.49720
H          1.06238        1.39482        2.20519
C          3.53219        2.47373        2.48346
C          1.83746       -5.02843       -1.11399
C          2.66075       -4.31127        1.14584
C          1.31800       -6.38395        0.93893
C         -3.86260       -3.38064        2.98751
C         -4.56714       -4.11375        0.69178
C         -3.42366       -5.70834        2.26199
C         -1.72186       -6.40942       -0.56977
H          2.75743       -5.59056       -1.27222
H          1.04698       -5.51235       -1.68385
H          1.97786       -4.02987       -1.52624
H          2.93289       -3.34327        0.72849
H          2.40421       -4.16687        2.19492
H          3.54792       -4.94245        1.10085
H          2.25371       -6.93975        0.88343
H          1.00117       -6.35381        1.98084
H          0.57094       -6.94173        0.37927
H         -4.03940       -2.34407        2.70559
H         -4.77479       -3.74858        3.45657
H         -3.07035       -3.39616        3.73547
H         -4.65263       -3.08118        0.35481
H         -4.34065       -4.72813       -0.17730
H         -5.53853       -4.42277        1.07695
H         -2.61273       -5.84132        2.97724
H         -4.35617       -5.99524        2.74746
H         -3.25717       -6.39746        1.43754
H         -1.87171       -7.48869       -0.60499
H         -2.65628       -5.90792       -0.81522
H         -0.96986       -6.12594       -1.30394
C          4.92591        3.24293       -0.73426
C          3.82786        1.01760       -3.21064
C          5.57957       -0.03951       -1.73144
C          3.64981       -1.38106       -2.51408
C          3.20295        3.95213        2.22540
C          2.87142        2.04830        3.81475
C          5.05034        2.28779        2.65748
H          2.76910        1.04917       -3.46737
H          4.13218        2.02621       -2.94103
H          4.38271        0.72478       -4.10150
H          6.14785       -0.41189       -2.58343
H          5.97852        0.93769       -1.47249
H          5.75669       -0.70603       -0.88800
H          4.30545       -1.74732       -3.30365
H          3.69944       -2.08569       -1.68457
H          2.63628       -1.38966       -2.91190
H          3.56171        4.58014        3.04043
H          3.66048        4.30355        1.30376
H          2.12646        4.09679        2.13653
H          3.33971        2.55522        4.65816
H          1.81238        2.30112        3.83907
H          2.97234        0.97470        3.97172
H          5.59655        2.64366        1.78764
H          5.29419        1.23515        2.79698
H          5.41599        2.83860        3.52374
H          3.88857        3.46712       -0.98351
H          5.33016        4.04091       -0.11165
H          5.51553        3.19396       -1.64952
