75
-122.81835608
P          1.81906       -0.58441        0.03333
C          3.13144       -1.31060       -0.96326
C          2.86387       -1.87798       -2.18784
C          3.88819       -2.45025       -2.91931
C          5.17307       -2.46015       -2.41419
C          5.43476       -1.90499       -1.17754
C          4.40786       -1.33281       -0.44849
H          4.59307       -0.91295        0.52795
H          6.43581       -1.91926       -0.77885
H          5.97217       -2.90486       -2.98459
H          3.68275       -2.88635       -3.88312
H          1.85673       -1.86844       -2.57171
C          1.71487       -1.57468        1.53245
C          1.52716       -0.98218        2.76003
C          1.53766       -1.75312        3.90734
C          1.73204       -3.11702        3.81692
C          1.91185       -3.71034        2.58317
C          1.90532       -2.93452        1.43781
H          2.06231       -3.38127        0.46871
H          2.06025       -4.77523        2.51164
H          1.73573       -3.72034        4.70999
H          1.38637       -1.29028        4.86862
H          1.35834        0.08011        2.81407
C          2.20388        1.12611        0.44727
C          3.36221        1.77147        0.08223
C          3.53572        3.12078        0.35754
C          2.49990        3.81637        0.98019
C          1.32711        3.18673        1.33338
C          1.17668        1.81517        1.07387
O         -0.01074        1.13819        1.39623
C         -1.20035        1.81384        1.08089
C         -1.35452        3.18328        1.34953
C         -2.53424        3.80951        1.01332
C         -3.57259        3.11389        0.39482
C         -3.39238        1.76912        0.10179
C         -2.22654        1.12798        0.44959
P         -1.83767       -0.56902       -0.00681
C         -1.67553       -1.60086        1.45295
C         -1.79112       -1.05772        2.71179
C         -1.75198       -1.88138        3.82162
C         -1.59902       -3.24435        3.66088
C         -1.48159       -3.78456        2.39543
C         -1.52285       -2.95813        1.28671
H         -1.44938       -3.36518        0.29032
H         -1.35862       -4.84774        2.27039
H         -1.56437       -3.88717        4.52525
H         -1.83721       -1.45894        4.80924
H         -1.90740        0.00816        2.82016
C         -3.17497       -1.27405       -0.98356
C         -4.41585       -1.38065       -0.39734
C         -5.46755       -1.93283       -1.10636
C         -5.26583       -2.38165       -2.39630
C         -4.01647       -2.28369       -2.97583
C         -2.96738       -1.73133       -2.26447
H         -1.98883       -1.64887       -2.70835
H         -3.85836       -2.63490       -3.98228
H         -6.08416       -2.81120       -2.95083
H         -6.44082       -2.01405       -0.65094
H         -4.55368       -1.03807        0.61653
Pd         0.00350       -0.04880       -1.39963
Cl        -1.54074        0.98960       -2.67991
Cl         1.60549        0.90537       -2.67596
H         -4.15837        1.22981       -0.42685
C         -4.82097        3.81393       -0.00839
H         -5.67795        3.14000        0.02711
H         -4.73640        4.19787       -1.02576
H         -5.03255        4.65486        0.65325
H         -2.64547        4.85946        1.21912
S         -0.01054        4.06622        2.09901
H          2.60792        4.86838        1.17693
C          4.77571        3.82403       -0.06562
H          4.12714        1.23303       -0.44829
H          4.98506        4.67740        0.58063
H          5.63827        3.15757       -0.02497
H          4.68121        4.19044       -1.08858
