171
-217.84319749
P         -1.61392        0.37259       -0.43291
P          1.59962       -0.38975       -0.30156
C         -0.87196        1.30133       -1.77515
C          0.93997       -1.38954       -1.63826
C         -0.04256        0.66227       -2.68964
C          0.59407        1.43603       -3.67939
C          0.34219        2.79647       -3.74122
C         -0.51308        3.40352       -2.84602
C         -1.11174        2.65100       -1.85471
C          1.17367       -2.74327       -1.61567
C          0.62248       -3.56080       -2.58197
C         -0.17934       -3.01284       -3.56025
C         -0.42771       -1.65062       -3.60033
C          0.16112       -0.81238       -2.63448
Cl         1.45889        0.32324        2.88166
Cl        -1.76310       -0.61266        2.67028
C         -1.29586       -1.09501       -4.67356
C          1.52882        0.82233       -4.66246
H         -0.70877        4.46115       -2.91486
H         -1.77147        3.11742       -1.14086
H          1.79227       -3.16473       -0.84037
H          0.81334       -4.62146       -2.56602
H          0.82653        3.38207       -4.50442
H         -0.62318       -3.64717       -4.30895
C         -3.96828       -3.22322       -1.83325
C         -2.93010       -3.40962       -0.92868
C         -2.21880       -2.29025       -0.51589
C         -2.53095       -1.04954       -1.01154
C         -3.55278       -0.88178       -1.91342
C         -4.30258       -1.97175       -2.33847
H         -4.53671       -4.08151       -2.13794
H         -1.41827       -2.37387        0.19862
H         -3.77449        0.10900       -2.27417
C         -4.17979        2.87702        2.35131
C         -4.77637        1.83982        1.64534
C         -3.98388        1.11033        0.76750
C         -2.65742        1.42293        0.59856
C         -2.08751        2.45725        1.30048
C         -2.83738        3.20211        2.20069
H         -4.77826        3.42747        3.05246
H         -4.38824        0.27065        0.23116
H         -1.03757        2.66163        1.17395
C          4.32681       -2.78623        2.42073
C          2.98427       -3.13731        2.34122
C          2.17533       -2.41479        1.47480
C          2.68818       -1.37272        0.74312
C          4.01341       -1.03042        0.84523
C          4.86488       -1.73905        1.68283
H          4.97450       -3.33037        3.08193
H          1.12864       -2.65228        1.38552
H          4.37534       -0.19321        0.27596
C          3.88666        3.29964       -1.56245
C          2.87230        3.43049       -0.62153
C          2.15385        2.29147       -0.28247
C          2.45874        1.08066       -0.85236
C          3.46941        0.96530       -1.77481
C          4.20750        2.08200       -2.15000
H          4.45825        4.16495       -1.83995
H          1.35718        2.34162        0.43948
H          3.68358       -0.00681       -2.18562
Pd        -0.08235       -0.02759        1.29259
C         -3.82761       -5.30362        0.44052
C         -2.62613       -4.81262       -0.38628
C         -1.37710       -4.81025        0.51586
C         -2.37355       -5.77608       -1.56105
H         -3.63886       -6.29442        0.85339
H         -4.02682       -4.62413        1.26906
H         -4.72874       -5.36057       -0.16916
H         -1.15338       -5.81641        0.86998
H         -0.50634       -4.44770       -0.02915
H         -1.52524       -4.17898        1.39171
H         -2.11513       -6.77142       -1.20004
H         -3.25420       -5.87176       -2.19475
H         -1.55266       -5.41895       -2.18162
C         -6.51381       -0.82902       -2.61679
C         -5.48696       -1.75496       -3.29322
C         -6.18587       -3.08204       -3.64688
C         -4.99246       -1.10581       -4.59828
H         -6.86243       -1.26272       -1.67980
H         -6.07985        0.14588       -2.39781
H         -7.38052       -0.67123       -3.25843
H         -7.01730       -2.91048       -4.33049
H         -5.49569       -3.77103       -4.13354
H         -6.58725       -3.56437       -2.75580
H         -4.29124       -1.76169       -5.11213
H         -5.82423       -0.91187       -5.27535
H         -4.49221       -0.15745       -4.40623
C         -7.12377        2.73605        1.66255
C         -6.24934        1.49079        1.90135
C         -6.40555        1.01475        3.35679
C         -6.73795        0.37039        0.96357
H         -6.99742        3.10503        0.64486
H         -8.17876        2.50484        1.80892
H         -6.86392        3.54305        2.34634
H         -6.11475        1.79423        4.06014
H         -7.43837        0.73957        3.56964
H         -5.77721        0.14434        3.54500
H         -7.78984        0.14698        1.14118
H         -6.63399        0.66762       -0.07910
H         -6.17571       -0.54989        1.12087
C         -3.13502        5.00201        3.97867
C         -2.14742        4.29134        3.03368
C         -1.53344        5.34161        2.09184
C         -1.03818        3.64148        3.88317
H         -2.62871        5.77623        4.55507
H         -3.93872        5.47975        3.41864
H         -3.57510        4.29999        4.68662
H         -0.79133        4.89151        1.43625
H         -2.30155        5.79563        1.46607
H         -1.04266        6.13460        2.65586
H         -0.52616        4.38478        4.49377
H         -1.45642        2.88596        4.54781
H         -0.29311        3.15272        3.25704
C          1.99014       -5.42823        2.21307
C          2.37366       -4.28083        3.16305
C          1.11778       -3.77071        3.89842
C          3.36301       -4.81791        4.21510
H          1.53220       -6.25290        2.75894
H          1.28268       -5.08954        1.45808
H          2.86979       -5.81066        1.69564
H          1.36262       -2.91649        4.52921
H          0.34323       -3.45690        3.20033
H          0.69355       -4.54909        4.53221
H          2.89978       -5.59886        4.81804
H          4.24522       -5.24965        3.74308
H          3.68410       -4.02428        4.88957
C          7.21507       -2.60400        1.50246
C          6.34862       -1.37429        1.83192
C          6.61285       -0.92277        3.27948
C          6.74956       -0.22982        0.87969
H          7.01656       -2.95380        0.48951
H          8.27574       -2.36391        1.57475
H          7.01396       -3.42737        2.18662
H          5.99120       -0.06428        3.53315
H          6.38802       -1.71873        3.98853
H          7.65588       -0.63768        3.41584
H          7.80860        0.00644        0.98221
H          6.57146       -0.50654       -0.15930
H          6.18805        0.67858        1.09739
C          1.19951        5.28331       -0.58992
C          2.51577        4.77835        0.02147
C          3.61334        5.83276       -0.22173
C          2.35049        4.60403        1.54454
H          0.88907        6.22375       -0.13503
H          1.31209        5.44626       -1.66150
H          0.40255        4.55529       -0.44672
H          3.37686        6.76273        0.29525
H          4.57801        5.48320        0.14593
H          3.71059        6.06605       -1.28166
H          3.25897        4.19476        1.98576
H          2.14197        5.55932        2.02594
H          1.52996        3.93062        1.78478
C          5.18228        2.99534       -4.28246
C          5.38776        1.99547       -3.12855
C          5.52789        0.58154       -3.72569
C          6.68694        2.33879       -2.37676
H          4.24992        2.79608       -4.80872
H          5.14708        4.02144       -3.91889
H          5.99618        2.92836       -5.00422
H          5.72581       -0.15565       -2.94780
H          4.62349        0.28767       -4.25741
H          6.35556        0.54115       -4.43368
H          7.55031        2.27348       -3.03866
H          6.65232        3.34912       -1.97054
H          6.84513        1.65101       -1.54672
H         -1.81120       -0.19399       -4.33781
H          1.07286        0.76515       -5.65178
H         -2.05356       -1.81964       -4.97288
H         -0.71060       -0.84157       -5.55819
H          1.81976       -0.18573       -4.36423
H          2.43987        1.41425       -4.74936
