171
-217.83402402
P         -1.45244        0.23805       -0.36871
P          1.68394       -0.71881        0.37577
C         -0.41992        1.04085       -1.61692
C          1.02619       -1.73002       -0.97203
C          0.43758        0.24738       -2.36875
C          1.27251        0.85060       -3.32856
C          1.18615        2.21859       -3.52862
C          0.32371        2.99167       -2.78003
C         -0.47209        2.39879       -1.81977
C          1.03162       -3.08280       -0.72663
C          0.49597       -3.96067       -1.64898
C         -0.06451       -3.47004       -2.80869
C         -0.09432       -2.11037       -3.06881
C          0.47241       -1.21837       -2.13923
Cl         0.68474       -1.13871        3.43391
Cl        -2.30347       -1.57860        2.34101
C         -0.74689       -1.62935       -4.31742
C          2.22757        0.03438       -4.12836
H          0.27775        4.05675       -2.93820
H         -1.11843        3.00503       -1.21013
H          1.45073       -3.44938        0.19895
H          0.50776       -5.02107       -1.45675
H          1.80717        2.67943       -4.27785
H         -0.49875       -4.14699       -3.52512
C         -4.33627       -2.51966       -2.51636
C         -3.73091       -2.97524       -1.35101
C         -2.85351       -2.12092       -0.69949
C         -2.58411       -0.87482       -1.20346
C         -3.18068       -0.44451       -2.36323
C         -4.07478       -1.26155       -3.04561
H         -5.04532       -3.14930       -3.01942
H         -2.39867       -2.41950        0.22751
H         -2.93329        0.53323       -2.73847
C         -4.13257        3.34564        1.62559
C         -3.45315        2.44624        2.43767
C         -2.63018        1.51230        1.82545
C         -2.49375        1.46817        0.45831
C         -3.20995        2.34008       -0.32550
C         -4.02690        3.30966        0.24063
H         -4.76915        4.07966        2.08054
H         -2.12534        0.78646        2.43427
H         -3.13882        2.26405       -1.39686
C          5.59722       -2.65207        1.59783
C          4.72333       -2.25523        2.60301
C          3.51754       -1.67987        2.22561
C          3.20706       -1.51444        0.90042
C          4.08023       -1.91659       -0.08032
C          5.29818       -2.49623        0.24932
H          6.53271       -3.09663        1.88099
H          2.79739       -1.37171        2.96026
H          3.80513       -1.78139       -1.11361
C          2.84046        3.63335       -0.18282
C          3.61718        2.63677       -0.75998
C          3.20611        1.32110       -0.59466
C          2.07272        1.02201        0.12054
C          1.32582        2.02168        0.70106
C          1.69146        3.35381        0.54645
H          3.14362        4.65836       -0.28306
H          3.79389        0.51741       -1.00327
H          0.45328        1.75949        1.27103
Pd        -0.37802       -0.76499        1.49566
C         -4.63895       -4.17643        0.65091
C         -4.01547       -4.35664       -0.74576
C         -2.69463       -5.13913       -0.62508
C         -4.98813       -5.17286       -1.61789
H         -4.86853       -5.14072        1.10364
H         -3.96270       -3.64638        1.32059
H         -5.56342       -3.60288        0.58847
H         -2.23021       -5.26061       -1.60325
H         -1.98548       -4.62261        0.02073
H         -2.86475       -6.13080       -0.20650
H         -5.95219       -4.67218       -1.70506
H         -4.58398       -5.32377       -2.61878
H         -5.16623       -6.15578       -1.18185
C         -4.75029       -1.84530       -5.40698
C         -4.82060       -0.77725       -4.29807
C         -4.21182        0.52731       -4.85072
C         -6.29068       -0.51727       -3.92529
H         -5.24958       -1.49773       -6.31133
H         -3.71620       -2.07224       -5.66316
H         -5.23315       -2.77273       -5.10277
H         -4.71773        0.83235       -5.76665
H         -4.31141        1.34437       -4.13698
H         -3.15485        0.39853       -5.08244
H         -6.76802       -1.42621       -3.56012
H         -6.36135        0.23543       -3.14015
H         -6.85625       -0.16226       -4.78661
C         -4.24151        1.04952        4.35890
C         -3.62450        2.40461        3.96382
C         -4.54864        3.53052        4.46522
C         -2.25309        2.56194        4.64672
H         -4.39775        0.99006        5.43572
H         -5.20425        0.90750        3.86857
H         -3.59518        0.22161        4.06970
H         -4.14894        4.51043        4.20455
H         -5.54726        3.43857        4.03863
H         -4.64990        3.49296        5.54981
H         -2.35170        2.51557        5.73103
H         -1.56394        1.77466        4.34353
H         -1.80417        3.52155        4.39340
C         -3.75455        5.04883       -1.54359
C         -4.77541        4.28493       -0.67851
C         -5.59744        5.31069        0.12494
C         -5.73336        3.49057       -1.58575
H         -3.04335        5.58553       -0.91578
H         -3.19060        4.37155       -2.18387
H         -4.25309        5.77436       -2.18607
H         -4.95584        5.90101        0.77898
H         -6.11264        6.00116       -0.54278
H         -6.35396        4.81691        0.73452
H         -6.44944        2.92610       -0.98883
H         -6.29153        4.15684       -2.24322
H         -5.19038        2.78327       -2.21120
C          6.39708       -1.68410        4.38115
C          5.10417       -2.46251        4.07603
C          5.32593       -3.96356        4.33769
C          3.99741       -1.96127        5.02501
H          7.22671       -2.03860        3.77063
H          6.26284       -0.62161        4.17884
H          6.68181       -1.79544        5.42726
H          5.57777       -4.14440        5.38252
H          4.42539       -4.53127        4.10425
H          6.13735       -4.35713        3.72666
H          3.06286       -2.49550        4.85522
H          4.28071       -2.11554        6.06601
H          3.81513       -0.89573        4.88736
C          7.53790       -3.56579       -0.31802
C          6.24906       -2.93125       -0.87444
C          6.63358       -1.70101       -1.71764
C          5.53851       -3.96768       -1.76534
H          7.31388       -4.45096        0.27704
H          8.19907       -3.87200       -1.12865
H          8.08599       -2.85901        0.30475
H          7.12533       -0.94986       -1.10005
H          7.31638       -1.97643       -2.52117
H          5.75583       -1.24087       -2.16997
H          6.19617       -4.31324       -2.56273
H          5.23374       -4.83433       -1.17905
H          4.64635       -3.54760       -2.22850
C          5.17027        4.44226       -1.66020
C          4.93854        2.92918       -1.48528
C          4.92226        2.27942       -2.88052
C          6.09722        2.34283       -0.65812
H          5.25138        4.94271       -0.69555
H          6.09486        4.63107       -2.20564
H          4.35517        4.89979       -2.22084
H          4.80944        1.19835       -2.81469
H          4.09829        2.67117       -3.47525
H          5.84939        2.48293       -3.41609
H          5.98454        1.26652       -0.53286
H          7.05625        2.52627       -1.14219
H          6.12720        2.79154        0.33457
C          0.51781        5.54238        0.12403
C          0.90978        4.50654        1.19499
C          1.79639        5.17420        2.26153
C         -0.37790        4.00838        1.87285
H          1.39519        5.97057       -0.35859
H         -0.10011        5.08584       -0.64770
H         -0.05042        6.36102        0.56539
H          2.09105        4.45219        3.02291
H          2.70417        5.58381        1.81981
H          1.26701        5.98895        2.75525
H         -0.92648        4.83588        2.32244
H         -1.03688        3.53223        1.14935
H         -0.15230        3.29170        2.66149
H         -0.85051       -0.54382       -4.32530
H          2.65444       -0.76972       -3.52664
H         -1.74560       -2.05608       -4.41439
H         -0.17149       -1.92148       -5.19704
H          3.05306        0.64116       -4.50236
H          1.73163       -0.41473       -4.98942
