58
-89.85926172
P          1.66533       -0.19821        0.68005
C          2.51415        1.35103        0.98625
C          3.06865        1.63430        2.21357
C          3.72202        2.83808        2.40799
C          3.82253        3.74400        1.37002
C          3.28021        3.44708        0.13520
C          2.62807        2.24296       -0.05564
H          2.22852        1.97378       -1.02076
H          3.00046        0.91068        3.00955
C          2.75542       -1.39192       -0.09757
C          4.08093       -1.08705       -0.30527
C          4.90830       -2.00675       -0.92390
C          4.39920       -3.22406       -1.33192
C          3.06698       -3.52356       -1.12443
C          2.24159       -2.60195       -0.50500
H          1.19639       -2.81682       -0.34567
H          4.46031       -0.12873        0.01060
C          0.90092       -0.94772        2.17213
C          0.10036        0.03135        3.01818
C         -0.76403        0.99244        2.21411
P         -1.63976        0.22157        0.79067
C         -2.25562       -1.43479        1.09665
C         -2.71849       -1.80398        2.33890
C         -3.18618       -3.09022        2.54030
C         -3.19427       -3.99270        1.49452
C         -2.74594       -3.61126        0.24522
C         -2.27994       -2.32462        0.04676
H         -1.96202       -1.99401       -0.92947
H         -2.72283       -1.08419        3.14140
C         -2.94658        1.30821        0.21866
C         -4.24042        0.84734        0.13603
C         -5.23982        1.68489       -0.32548
C         -4.93335        2.97737       -0.70366
C         -3.63228        3.43360       -0.62283
C         -2.63466        2.59377       -0.16025
H         -1.61187        2.93185       -0.10197
H         -4.46125       -0.16709        0.42642
Pd        -0.02660        0.09736       -0.87928
Cl         1.50449        0.20479       -2.51844
Cl        -1.71728        0.18185       -2.35856
H         -1.51303        1.48112        2.84182
H         -0.15424        1.78802        1.77975
H         -0.52760       -0.53358        3.72278
H          0.78012        0.61182        3.65921
H          0.26044       -1.74877        1.79721
H          1.69388       -1.42799        2.75019
H          4.15451        3.06678        3.36819
H          3.36934        4.14717       -0.67910
H          5.94651       -1.77107       -1.09067
H          2.66869       -4.47103       -1.44830
H         -3.54584       -3.38622        3.51207
H         -2.76529       -4.31026       -0.57466
H         -6.25406        1.32727       -0.39358
H         -3.39221        4.44000       -0.92408
H          4.33191        4.68163        1.52200
H          5.04214       -3.94037       -1.81696
H         -3.55901       -4.99467        1.65186
H         -5.71046        3.63011       -1.06662
