111
-148.55507150
P         -2.50988        2.10695        1.09603
P          0.08629        0.38136        0.54502
C         -1.42028        1.65711        2.47283
C         -0.27448        0.93405        2.22190
C         -3.19247        3.81662        1.28409
C         -2.56326        4.76751        0.28930
C         -1.73825        2.01589        3.76702
H         -2.64538        2.56490        3.96002
C         -0.89914        1.65448        4.80711
H         -1.14645        1.93362        5.81832
C          0.25231        0.93434        4.55166
H          0.90400        0.65124        5.36179
C          0.56419        0.56969        3.25409
H          1.45149       -0.00451        3.03726
Pd        -1.36042        1.55987       -0.82829
Cl        -3.09397        2.37619       -1.99038
Cl         0.03986        1.10342       -2.52586
C         -4.70767        3.60620        1.10187
C         -4.07828        1.12666        1.06488
H         -2.96723        5.77747        0.39146
H         -1.47969        4.81972        0.42058
H         -2.75303        4.43870       -0.73367
H         -4.96482        3.79428        0.05037
H         -5.27165        4.35244        1.68184
H         -4.23095        0.83075        0.01828
C         -5.13764        2.16141        1.48647
C         -3.98636       -0.09102        1.95868
H         -2.96990        4.12969        2.31216
H         -5.28101        2.09824        2.57398
H         -6.11425        1.91111        1.04479
H         -3.77408        0.19908        2.98933
H         -4.91969       -0.65880        1.95853
H         -3.18443       -0.75758        1.63389
C         -1.12663       -3.95476       -0.11394
C         -1.15943       -3.41947        1.19991
C         -0.78268       -2.09910        1.38034
C         -0.46026       -1.30687        0.31027
C         -0.53554       -1.78841       -0.96927
C         -0.90359       -3.09780       -1.22187
O         -1.27345       -5.35293       -0.31554
C         -1.55199       -4.25979        2.42503
H         -0.71853       -1.67437        2.36636
H         -0.28918       -1.11579       -1.77267
C         -1.01634       -3.56886       -2.67955
C          4.44073        0.72259       -0.72600
C          3.91438       -0.53335       -0.32928
C          2.58489       -0.59357        0.05214
C          1.81445        0.53782        0.11707
C          2.34682        1.76892       -0.15959
C          3.66929        1.90066       -0.55152
O          5.72201        0.79497       -1.33453
C          4.73927       -1.82965       -0.35235
H          2.12216       -1.53742        0.28371
H          1.70237        2.62840       -0.08957
C          4.22633        3.30454       -0.83384
C         -2.19117       -3.37162        3.51674
C         -2.59441       -5.32981        2.05275
C         -0.29532       -4.92420        3.00739
C          0.35705       -4.06253       -3.15954
C         -2.06490       -4.68638       -2.82421
C         -1.46976       -2.40537       -3.59163
C         -0.04537       -6.07015       -0.29849
H         -2.57000       -3.98081        4.33709
H         -1.47262       -2.67344        3.94331
H         -3.02666       -2.80138        3.11237
H         -2.18912       -6.04984        1.34621
H         -2.92183       -5.88138        2.93368
H         -3.46985       -4.86968        1.59567
H          0.43702       -4.17236        3.30086
H         -0.54003       -5.51904        3.88701
H          0.17711       -5.57959        2.27960
H          0.71220       -4.89225       -2.55285
H          0.31163       -4.39734       -4.19549
H          1.09655       -3.26467       -3.09475
H         -3.03157       -4.35626       -2.44531
H         -2.18967       -4.97412       -3.86781
H         -1.77636       -5.57602       -2.27021
H         -1.67718       -2.76220       -4.60010
H         -2.37793       -1.94229       -3.20674
H         -0.70404       -1.63594       -3.67689
H          0.78879       -5.39283       -0.11058
H         -0.07794       -6.83147        0.48075
H          0.10111       -6.56936       -1.25613
C          5.69864        0.65244       -2.74946
C          6.22383       -1.54933       -0.05754
C          4.24215       -2.81157        0.73379
C          4.58687       -2.50336       -1.72474
C          3.52668        4.35847        0.05436
C          5.73101        3.38107       -0.51771
C          3.97377        3.66101       -2.30684
H          6.79625       -2.47552       -0.01285
H          6.67044       -0.92384       -0.82623
H          6.33484       -1.03547        0.89671
H          4.21305       -2.32767        1.70972
H          3.24676       -3.19256        0.50960
H          4.90427       -3.67400        0.80752
H          5.15268       -3.43364       -1.76830
H          3.54099       -2.73457       -1.92553
H          4.94116       -1.85660       -2.52369
H          3.57444        4.07322        1.10497
H          4.00572        5.33171       -0.05033
H          2.48067        4.48704       -0.21981
H          5.92157        3.08761        0.51404
H          6.30675        2.72255       -1.16307
H          6.10989        4.39309       -0.65826
H          2.90788        3.63255       -2.53206
H          4.46990        2.95956       -2.97307
H          4.34155        4.66083       -2.53588
H          6.29852       -0.20949       -3.04096
H          4.67464        0.51912       -3.10090
H          6.12997        1.53915       -3.21371
