75
-122.80764987
P          1.88650       -0.52600       -0.08950
C          3.27461       -1.19298       -1.03128
C          4.13733       -2.07126       -0.41416
C          5.21781       -2.58319       -1.10943
C          5.43195       -2.20837       -2.42076
C          4.57162       -1.32053       -3.03459
C          3.49490       -0.81222       -2.33423
H          2.83209       -0.09925       -2.79243
H          4.74111       -1.01999       -4.05553
H          6.27340       -2.60620       -2.96427
H          5.89102       -3.27280       -0.62720
H          3.96307       -2.35341        0.61153
C          1.63372       -1.60534        1.32150
C          1.94141       -1.17069        2.59013
C          1.84380       -2.04466        3.65730
C          1.44439       -3.34909        3.44308
C          1.13832       -3.78051        2.16747
C          1.23597       -2.90417        1.10153
H          1.01676       -3.22917        0.09638
H          0.82290       -4.79737        2.00147
H          1.36418       -4.03015        4.27452
H          2.07788       -1.70695        4.65343
H          2.25878       -0.15124        2.73842
C          2.27403        1.14749        0.43237
C          3.45630        1.78306        0.13407
C          3.62893        3.12638        0.43859
C          2.57502        3.81906        1.03495
C          1.38140        3.19533        1.32494
C          1.23416        1.82751        1.04551
O          0.04662        1.14115        1.33933
C         -1.14468        1.80489        1.01163
C         -1.30452        3.17984        1.24558
C         -2.47734        3.79500        0.86816
C         -3.50058        3.08129        0.24494
C         -3.32995        1.72137        0.02678
C         -2.17066        1.09023        0.41290
P         -1.78058       -0.64231        0.09611
C         -1.73513       -1.53159        1.66518
C         -1.37674       -0.89373        2.83054
C         -1.42755       -1.56989        4.03480
C         -1.83303       -2.88908        4.06501
C         -2.18412       -3.53128        2.89436
C         -2.13672       -2.84822        1.69243
H         -2.42249       -3.33440        0.77338
H         -2.49752       -4.56205        2.91607
H         -1.86844       -3.42011        5.00219
H         -1.14204       -1.06991        4.94568
H         -1.03916        0.12740        2.79063
C         -3.07762       -1.42703       -0.87855
C         -2.77682       -2.11582       -2.03109
C         -3.78554       -2.73559       -2.74541
C         -5.08860       -2.67212       -2.29372
C         -5.38394       -1.99711       -1.12630
C         -4.37265       -1.37761       -0.41454
H         -4.58488       -0.86978        0.51328
H         -6.39915       -1.95560       -0.76726
H         -5.87544       -3.15419       -2.85064
H         -3.55357       -3.26699       -3.65375
H         -1.75514       -2.16814       -2.37062
Pd        -0.02431       -0.14197       -1.45701
Cl        -1.72380        0.74489       -2.66066
Cl         1.32278        1.38476       -2.46397
H         -4.09873        1.16335       -0.47666
C         -4.76236        3.75579       -0.16121
H         -5.53881        3.61069        0.59094
H         -5.13051        3.35770       -1.10772
H         -4.61325        4.82862       -0.28937
H         -2.59714        4.84815        1.05135
S          0.01278        4.08025        2.02445
H          2.68550        4.86469        1.26185
C          4.91459        3.80720        0.12936
H          4.24107        1.23908       -0.36242
H          4.80341        4.89204        0.14858
H          5.68170        3.53464        0.85527
H          5.27392        3.52857       -0.86219
