111
-148.55528015
P         -2.54222        2.07039        0.98106
P          0.11216        0.40116        0.54391
C         -1.45215        1.72946        2.38899
C         -0.28013        1.03308        2.18605
C         -3.31771        3.74723        1.08097
C         -2.71581        4.68587        0.05801
C         -1.79357        2.14644        3.65952
H         -2.72063        2.67314        3.81630
C         -0.95151        1.87172        4.72344
H         -1.21681        2.19712        5.71610
C          0.22608        1.17906        4.51571
H          0.88018        0.96368        5.34452
C          0.56117        0.75437        3.24243
H          1.46921        0.19983        3.06368
Pd        -1.30220        1.54815       -0.88394
Cl        -2.97228        2.19059       -2.23403
Cl         0.07707        0.98493       -2.57198
C         -4.81480        3.44872        0.87268
C         -4.05479        1.00657        0.95215
H         -2.86231        4.30143       -0.95275
H         -3.17597        5.67570        0.10446
H         -1.64025        4.80336        0.21104
H         -5.05538        3.58222       -0.19104
H         -5.43157        4.18554        1.40937
H         -4.16309        0.66052       -0.08462
C         -5.17803        1.99914        1.30447
C         -3.92535       -0.16629        1.89935
H         -3.13749        4.11601        2.09872
H         -5.34731        1.97110        2.38976
H         -6.12786        1.67959        0.84920
H         -3.08632       -0.80686        1.62011
H         -3.75001        0.17730        2.92051
H         -4.83047       -0.77800        1.90469
C         -1.18920       -3.93193        0.04051
C         -1.13970       -3.37023        1.34277
C         -0.73200       -2.05321        1.47529
C         -0.45738       -1.28744        0.37325
C         -0.60835       -1.79443       -0.88954
C         -1.00915       -3.10201       -1.09514
O         -1.37931       -5.32980       -0.12385
C         -1.48238       -4.17896        2.60369
H         -0.61044       -1.60861        2.44710
H         -0.39138       -1.14445       -1.71943
C         -1.20364       -3.59918       -2.53543
C          4.47674        0.73890       -0.70034
C          3.85738       -0.53449       -0.62390
C          2.52851       -0.59229       -0.24154
C          1.84403        0.53758        0.12217
C          2.46479        1.75829        0.14608
C          3.79450        1.88782       -0.22253
O          5.76305        0.86746       -1.28870
C          4.58197       -1.83943       -0.98945
H          1.99946       -1.52910       -0.24200
H          1.88668        2.61626        0.44381
C          4.46061        3.27023       -0.13984
C         -2.02949       -3.25580        3.71628
C         -2.57537       -5.22297        2.31122
C         -0.21324       -4.87134        3.12292
C         -1.67487       -2.44388       -3.44927
C          0.13353       -4.13364       -3.07094
C         -2.28293       -4.69427       -2.60534
C         -0.17004       -6.07754       -0.16085
H         -2.37775       -3.84119        4.56695
H         -1.26600       -2.57468        4.08902
H         -2.86954       -2.66528        3.35248
H         -2.23405       -5.96416        1.59283
H         -2.86446       -5.75256        3.21865
H         -3.46340       -4.74366        1.90046
H         -0.42229       -5.44333        4.02656
H          0.19542       -5.55324        2.38117
H          0.55707       -4.13724        3.35825
H         -0.89620       -1.69589       -3.59015
H         -1.94163       -2.81639       -4.43791
H         -2.55099       -1.95006       -3.02981
H          0.49890       -4.96039       -2.46639
H          0.03081       -4.48566       -4.09703
H          0.89315       -3.35239       -3.05652
H         -3.22298       -4.33277       -2.18989
H         -2.46298       -5.00185       -3.63512
H         -1.98933       -5.57809       -2.04480
H         -0.08665       -6.59321       -1.11732
H          0.68934       -5.41928       -0.02669
H         -0.18065       -6.82761        0.62983
C          5.73726        1.09641       -2.69211
C          6.07968       -1.75712       -0.64419
C          3.99959       -3.02995       -0.19231
C          4.39554       -2.12045       -2.48829
C          5.96411        3.14624        0.16728
C          4.24953        4.01460       -1.46709
C          3.83782        4.10873        0.99962
H          6.57968       -0.98725       -1.22646
H          6.21763       -1.52024        0.41025
H          6.58149       -2.70268       -0.84811
H          4.59561       -3.92873       -0.34904
H          3.99281       -2.81527        0.87601
H          2.98212       -3.26492       -0.50192
H          4.81451       -1.32157       -3.09503
H          4.88294       -3.05202       -2.77477
H          3.33735       -2.20267       -2.73527
H          6.49256        2.63525       -0.63351
H          6.42139        4.12783        0.28916
H          6.12274        2.58161        1.08542
H          3.18678        4.13034       -1.67864
H          4.69789        5.00722       -1.43416
H          4.69377        3.47266       -2.29835
H          2.80710        4.38392        0.78128
H          4.39175        5.03598        1.14461
H          3.85491        3.55818        1.93987
H          6.27860        0.30021       -3.20280
H          4.70836        1.12745       -3.05305
H          6.23087        2.04143       -2.91802
