111
-148.55477101
P         -2.58292        2.04072        1.07039
P          0.09927        0.45950        0.47897
C         -1.47136        1.60363        2.43662
C         -0.28187        0.96181        2.16709
C         -3.37440        3.69242        1.34308
C         -2.76753        4.75542        0.45357
C         -1.81204        1.89984        3.74107
H         -2.75233        2.38309        3.94994
C         -0.95306        1.55913        4.77185
H         -1.21862        1.78996        5.79060
C          0.24177        0.92160        4.49757
H          0.90893        0.65403        5.30036
C          0.57640        0.61760        3.19026
H          1.49627        0.10359        2.95918
Pd        -1.37640        1.62948       -0.86238
Cl        -3.13696        2.55097       -1.91006
Cl        -0.10432        1.18302       -2.65525
C         -4.86458        3.40444        1.08283
C         -4.08730        0.96755        0.96862
H         -2.89776        4.50195       -0.59922
H         -3.23608        5.72856        0.61777
H         -1.69510        4.85953        0.63481
H         -5.08651        3.62360        0.02931
H         -5.49648        4.09034        1.66735
H         -4.19265        0.69262       -0.08949
C         -5.22162        1.92122        1.38782
C         -3.94471       -0.26691        1.83217
H         -3.21499        3.94143        2.39991
H         -5.40381        1.80225        2.46475
H         -6.16365        1.63495        0.89588
H         -3.77251        0.00677        2.87474
H         -4.84323       -0.88718        1.79489
H         -3.09898       -0.87761        1.50931
C         -1.08973       -3.87921       -0.21767
C         -1.05803       -3.37176        1.10693
C         -0.69398       -2.04901        1.29429
C         -0.44435       -1.22850        0.22604
C         -0.57786       -1.68636       -1.05717
C         -0.93963       -2.99599       -1.31713
O         -1.22813       -5.27498       -0.44091
C         -1.36598       -4.24349        2.33410
H         -0.58236       -1.64434        2.28448
H         -0.38088       -0.99602       -1.85885
C         -1.12395       -3.43898       -2.77627
C          4.53463        0.64895       -0.53449
C          3.95133       -0.56132       -0.07484
C          2.60868       -0.55137        0.26287
C          1.83921        0.56901        0.08441
C          2.36844        1.70344       -0.47236
C          3.70421        1.76178       -0.83653
O          5.94557        0.76868       -0.61998
C          4.70880       -1.89504        0.03867
H          2.14127       -1.43499        0.66452
H          1.71844        2.54603       -0.63676
C          4.19195        3.01242       -1.58785
C         -0.06772       -4.90028        2.82715
C         -1.95201       -3.38847        3.48089
C         -2.41337       -5.32104        1.99963
C          0.22784       -3.90491       -3.33823
C         -2.16541       -4.56685       -2.88831
C         -1.63926       -2.26343       -3.63878
C          0.00857       -5.97431       -0.50781
H         -0.25154       -5.51689        3.70661
H          0.37033       -5.53302        2.05899
H          0.66993       -4.14338        3.09314
H         -2.27599       -4.02088        4.30713
H         -1.21825       -2.69092        3.88190
H         -2.81583       -2.81986        3.13847
H         -2.04078       -6.01867        1.25372
H         -2.67974       -5.89716        2.88540
H         -3.32098       -4.86446        1.60612
H          0.96167       -3.10051       -3.29149
H          0.62235       -4.74494       -2.77145
H          0.13241       -4.21506       -4.37844
H         -2.34131       -4.83589       -3.92952
H         -1.83781       -5.46328       -2.36801
H         -3.11470       -4.25651       -2.45296
H         -0.88793       -1.48318       -3.74979
H         -1.89722       -2.60287       -4.64156
H         -2.53028       -1.81910       -3.19603
H          0.84290       -5.28857       -0.35459
H          0.03101       -6.75053        0.25693
H          0.10663       -6.45351       -1.48171
C          6.53012        1.23426        0.58458
C          6.04793       -1.87138       -0.71801
C          4.96107       -2.21441        1.52116
C          3.85622       -3.02421       -0.58458
C          5.55656        2.79344       -2.26409
C          3.18529        3.36079       -2.70733
C          4.28848        4.19366       -0.60898
H          6.52532       -2.85089       -0.70298
H          5.89664       -1.58205       -1.75737
H          6.73988       -1.16101       -0.27163
H          4.02266       -2.27300        2.07192
H          5.47548       -3.16865        1.63195
H          5.57384       -1.44642        1.98955
H          2.93578       -3.19343       -0.02812
H          3.58779       -2.78061       -1.61218
H          4.40533       -3.96538       -0.59463
H          5.83822        3.65471       -2.86942
H          6.34103        2.63876       -1.52699
H          5.52843        1.91718       -2.91084
H          3.03217        2.50608       -3.36557
H          2.21624        3.65171       -2.30582
H          3.54806        4.19119       -3.31243
H          4.60685        5.10019       -1.12308
H          5.00508        3.98873        0.18424
H          3.32404        4.39314       -0.14293
H          6.32666        0.53396        1.39320
H          7.60804        1.32544        0.44941
H          6.11648        2.20627        0.84891
