111
-148.55139168
P         -2.59045        1.89822        1.08252
P          0.13921        0.44814        0.46247
C         -1.46876        1.47838        2.44737
C         -0.24354        0.91638        2.16027
C         -3.58590        3.41155        1.47074
C         -2.97580        4.67989        0.91608
C         -1.82061        1.71866        3.76088
H         -2.78729        2.13543        3.98861
C         -0.93813        1.40567        4.78042
H         -1.21346        1.59353        5.80541
C          0.29316        0.85187        4.48749
H          0.97890        0.60592        5.28150
C          0.63924        0.60089        3.17230
H          1.58681        0.14780        2.92700
Pd        -1.32117        1.68220       -0.84628
Cl        -2.58336        3.22150       -1.86683
Cl        -0.16830        1.08331       -2.67941
C         -4.96801        3.04199        0.90447
C         -3.95954        0.68155        0.79438
H         -2.92095        4.64494       -0.17138
H         -3.56810        5.55766        1.18424
H         -1.96056        4.82773        1.29111
H         -5.00470        3.33361       -0.15448
H         -5.75706        3.62676        1.40189
H         -3.88706        0.38671       -0.26112
C         -5.23548        1.51455        1.03456
C         -3.81985       -0.52258        1.70003
H         -3.64041        3.46972        2.56487
H         -5.61332        1.29719        2.04290
H         -6.03462        1.19759        0.34775
H         -4.63929       -1.23026        1.55435
H         -2.88263       -1.05051        1.51489
H         -3.82288       -0.21996        2.74891
C         -1.24880       -3.85192       -0.15254
C         -0.95338       -3.38409        1.15322
C         -0.51056       -2.08051        1.29852
C         -0.42391       -1.23744        0.22197
C         -0.79632       -1.65843       -1.02603
C         -1.25611       -2.94501       -1.24273
O         -1.50190       -5.23208       -0.37224
C         -1.08301       -4.27201        2.40047
H         -0.22586       -1.70288        2.26444
H         -0.71017       -0.95961       -1.83862
C         -1.73432       -3.33618       -2.64949
C          4.55415        0.65818       -0.61842
C          4.04323       -0.46936        0.07410
C          2.69130       -0.49623        0.37286
C          1.88060        0.56928        0.08057
C          2.39005        1.70602       -0.48918
C          3.73187        1.79630       -0.82194
O          5.87441        0.63191       -1.14144
C          4.91578       -1.67100        0.46944
H          2.24462       -1.36558        0.82429
H          1.71462        2.51853       -0.69425
C          4.26031        3.09974       -1.44093
C         -1.40100       -3.41858        3.64999
C         -2.23425       -5.28174        2.24310
C          0.24293       -5.01081        2.63702
C         -0.54106       -3.85582       -3.46521
C         -2.84028       -4.40487       -2.58352
C         -2.33578       -2.11184       -3.37800
C         -0.33908       -5.99212       -0.67648
H         -2.27054       -2.78514        3.47700
H         -1.61721       -4.05507        4.50772
H         -0.56248       -2.78214        3.92890
H         -3.17042       -4.76593        2.03181
H         -2.04456       -5.97575        1.42804
H         -2.36763       -5.86887        3.15137
H          0.49682       -5.64553        1.79148
H          1.05915       -4.30216        2.77629
H          0.18647       -5.63986        3.52503
H         -0.09584       -4.73138       -2.99862
H         -0.84766       -4.13057       -4.47411
H          0.23282       -3.09252       -3.54343
H         -3.67201       -4.05842       -1.97095
H         -3.22333       -4.63440       -3.57753
H         -2.47179       -5.33173       -2.15131
H         -2.79490       -2.40919       -4.32041
H         -3.10267       -1.63566       -2.76754
H         -1.57622       -1.36826       -3.61422
H         -0.44437       -6.44440       -1.66242
H          0.54666       -5.35569       -0.66109
H         -0.22469       -6.79241        0.05452
C          5.96378        0.10736       -2.46041
C          4.37152       -2.34009        1.75280
C          4.89948       -2.70602       -0.66574
C          6.36062       -1.23364        0.77078
C          5.73371        3.33831       -1.06388
C          4.10653        3.03228       -2.96809
C          3.46080        4.31561       -0.91968
H          3.41189       -2.82517        1.57998
H          5.05748       -3.10825        2.10920
H          4.24727       -1.60689        2.54934
H          5.29578       -2.28707       -1.58752
H          5.49899       -3.57852       -0.40733
H          3.88219       -3.04230       -0.86541
H          6.84311       -0.82109       -0.11163
H          6.37590       -0.46960        1.54730
H          6.96213       -2.07599        1.11155
H          6.37820        2.56209       -1.46852
H          6.08728        4.29391       -1.45026
H          5.85659        3.34352        0.01863
H          4.67450        2.20446       -3.38553
H          3.06186        2.88844       -3.24319
H          4.45639        3.95143       -3.43722
H          2.43480        4.31018       -1.28449
H          3.91346        5.24849       -1.25498
H          3.43885        4.32699        0.16972
H          6.39443        0.85712       -3.12390
H          6.61688       -0.76511       -2.46422
H          4.97541       -0.17604       -2.82453
