171
-217.83743804
P         -1.71340        0.67631        0.23750
P          1.50495       -0.18320       -0.21233
C         -0.90207        1.87883       -0.83749
C          0.69624       -0.76205       -1.71570
C         -0.19087        1.54602       -1.98442
C          0.48281        2.56660       -2.68175
C          0.40234        3.87057       -2.22311
C         -0.31228        4.18230       -1.08671
C         -0.95536        3.17783       -0.38992
C          0.86827       -2.05353       -2.15087
C          0.24926       -2.48315       -3.30839
C         -0.55645       -1.61667       -4.01723
C         -0.75284       -0.31338       -3.59092
C         -0.08880        0.13303       -2.43213
Cl         2.01463        0.97376        2.77202
Cl        -1.08138        0.33863        3.48407
C         -1.63845        0.59801       -4.36668
C          1.29562        2.27849       -3.89532
H         -0.36199        5.20065       -0.73740
H         -1.49717        3.40194        0.51723
H          1.48553       -2.73000       -1.58480
H          0.39292       -3.49275       -3.65676
H          0.91903        4.64578       -2.76365
H         -1.03912       -1.94994       -4.92012
C         -2.83504       -3.39801       -1.39902
C         -3.49784       -2.26830       -1.85865
C         -3.10124       -1.03726       -1.35316
C         -2.09678       -0.95330       -0.42050
C         -1.46508       -2.08566        0.03987
C         -1.81627       -3.33572       -0.45650
H         -3.13435       -4.35900       -1.77480
H         -3.58469       -0.13175       -1.67439
H         -0.69245       -1.98850        0.78086
C         -5.70309        2.45339        1.44278
C         -4.92862        1.85526        2.42892
C         -3.69900        1.33010        2.05618
C         -3.27021        1.40895        0.75608
C         -4.04519        2.01133       -0.20502
C         -5.28545        2.54602        0.12112
H         -6.66092        2.85923        1.71214
H         -3.05300        0.86647        2.77830
H         -3.66864        2.06528       -1.21248
C          3.84772       -3.62345        1.64955
C          2.86788       -3.01446        2.42107
C          2.14014       -1.98190        1.84635
C          2.39740       -1.55853        0.56313
C          3.38962       -2.16191       -0.17140
C          4.12613       -3.21755        0.35150
H          4.41957       -4.42694        2.07610
H          1.37652       -1.49317        2.42026
H          3.58910       -1.80161       -1.16454
C          4.59888        2.89560       -1.43796
C          3.83026        3.14459       -0.30703
C          2.89194        2.19174        0.06212
C          2.72373        1.04930       -0.67699
C          3.47760        0.82846       -1.80399
C          4.43856        1.74894       -2.20632
H          5.35516        3.60171       -1.72388
H          2.30029        2.33325        0.94839
H          3.29669       -0.06238       -2.37987
Pd         0.15008        0.47431        1.61961
C         -5.74011       -3.31478       -2.26344
C         -4.65027       -2.40685       -2.86351
C         -4.11909       -3.02674       -4.16782
C         -5.28601       -1.04086       -3.19053
H         -5.35884       -4.31584       -2.06579
H         -6.10696       -2.90427       -1.32283
H         -6.58661       -3.40963       -2.94336
H         -4.91974       -3.14590       -4.89758
H         -3.35291       -2.39211       -4.61054
H         -3.67965       -4.00755       -3.98976
H         -6.10698       -1.15519       -3.89819
H         -5.68732       -0.57136       -2.29255
H         -4.55839       -0.36462       -3.63770
C          0.03029       -4.35629        0.96560
C         -1.16403       -4.63553        0.03746
C         -0.65136       -5.45532       -1.16199
C         -2.20986       -5.45402        0.81515
H          0.50136       -5.28811        1.27691
H          0.78625       -3.76044        0.45700
H         -0.28405       -3.82629        1.86390
H         -0.17764       -6.37808       -0.82734
H         -1.46030       -5.72579       -1.83900
H          0.08623       -4.88855       -1.72805
H         -3.05755       -5.71270        0.18144
H         -1.77846       -6.38059        1.19356
H         -2.58837       -4.88562        1.66456
C         -4.42948        1.09598        4.80646
C         -5.44266        1.78945        3.87415
C         -6.76061        0.99425        3.90871
C         -5.68305        3.21867        4.39400
H         -4.80622        1.05825        5.82840
H         -4.23941        0.07154        4.48720
H         -3.48111        1.63251        4.82425
H         -7.14087        0.91324        4.92687
H         -7.52879        1.47390        3.30327
H         -6.61138       -0.01396        3.52262
H         -4.76314        3.80172        4.35418
H         -6.43347        3.73650        3.79785
H         -6.02967        3.20485        5.42719
C         -5.53014        3.21824       -2.32142
C         -6.18975        3.20797       -0.92784
C         -6.47163        4.66336       -0.51195
C         -7.51316        2.42666       -1.02106
H         -6.18114        3.69515       -3.05398
H         -4.59033        3.77003       -2.30664
H         -5.33067        2.20493       -2.66935
H         -5.54126        5.22317       -0.41779
H         -7.09522        5.16640       -1.25082
H         -6.98811        4.70923        0.44607
H         -8.04410        2.43265       -0.06983
H         -8.17107        2.86162       -1.77325
H         -7.32826        1.38791       -1.29416
C          3.94864       -3.13087        4.67297
C          2.66293       -3.43759        3.88369
C          2.35912       -4.94518        3.95591
C          1.49497       -2.67357        4.54048
H          4.79800       -3.68403        4.27355
H          4.18652       -2.06858        4.62006
H          3.83678       -3.40062        5.72294
H          2.22052       -5.26412        4.98883
H          1.44832       -5.18316        3.40858
H          3.17007       -5.53623        3.53245
H          1.35442       -2.99489        5.57225
H          1.68496       -1.60052        4.55488
H          0.55983       -2.85060        4.01013
C          4.81107       -5.40855       -0.64695
C          5.21346       -3.93435       -0.46081
C          6.55445       -3.84934        0.29133
C          5.39693       -3.29675       -1.85247
H          5.55522       -5.94543       -1.23499
H          4.71373       -5.91546        0.31248
H          3.85377       -5.48338       -1.16284
H          6.83620       -2.80972        0.45759
H          6.49788       -4.34020        1.26206
H          7.35138       -4.32834       -0.27727
H          4.47808       -3.35405       -2.43590
H          5.68912       -2.25031       -1.76714
H          6.17592       -3.81166       -2.41453
C          2.65479        5.16247        0.60221
C          3.99429        4.40444        0.55405
C          5.06973        5.34928       -0.01495
C          4.40677        3.99158        1.97933
H          2.74030        6.06956        1.20008
H          2.33945        5.44769       -0.40105
H          1.86772        4.54879        1.03893
H          4.81413        5.67083       -1.02448
H          5.16465        6.24278        0.60201
H          6.04477        4.86321       -0.04225
H          3.64939        3.36118        2.44374
H          5.34143        3.43157        1.96221
H          4.54757        4.86613        2.61407
C          4.86591        0.29314       -4.25010
C          5.35829        1.48783       -3.40869
C          6.77203        1.17507       -2.88762
C          5.40801        2.72865       -4.32144
H          4.88845       -0.63198       -3.67514
H          3.84774        0.45561       -4.60269
H          5.50055        0.14827       -5.12426
H          6.75777        0.30119       -2.23643
H          7.45694        0.97272       -3.71087
H          7.17166        2.01146       -2.31484
H          5.81866        3.59314       -3.80196
H          6.03459        2.54265       -5.19364
H          4.41213        2.99084       -4.67612
H         -2.08485        1.35652       -3.72160
H          2.27995        2.74041       -3.81423
H         -2.45256        0.04707       -4.83953
H         -1.08077        1.10809       -5.15303
H          0.81322        2.67225       -4.79107
H          1.44536        1.20740       -4.03467
