111
-148.55324849
P         -1.63222        2.75291       -0.22354
P         -0.47063       -0.08841        0.52027
C         -1.69597        2.17018        1.49682
C         -1.25322        0.90143        1.80511
C         -0.43116        4.15274       -0.36464
C          0.73180        3.77119       -1.25569
C         -2.15181        2.99885        2.50245
H         -2.45474        4.00552        2.26609
C         -2.19145        2.54192        3.80852
H         -2.55199        3.18774        4.59247
C         -1.76350        1.26315        4.10997
H         -1.78942        0.90981        5.12764
C         -1.28171        0.44321        3.10541
H         -0.90973       -0.54495        3.32675
Pd        -1.19563        0.84102       -1.46280
Cl        -2.27790        1.81829       -3.16412
Cl        -0.63297       -1.07115       -2.50036
C         -1.29031        5.31298       -0.90684
C         -3.18749        3.61082       -0.75170
H          1.27813        2.91516       -0.85427
H          0.37958        3.49476       -2.25162
H          1.43640        4.59843       -1.36913
H         -1.12698        5.39377       -1.99019
H         -0.94865        6.27104       -0.48699
H         -3.32850        3.35214       -1.80882
C         -2.80612        5.09708       -0.63205
C         -4.39813        3.18623        0.05215
H         -0.09240        4.36535        0.65785
H         -3.05381        5.44912        0.37860
H         -3.42010        5.70539       -1.31382
H         -4.28150        3.43760        1.10640
H         -5.30469        3.68171       -0.30259
H         -4.55519        2.10708       -0.01147
C         -0.99754       -4.59553        0.88604
C          0.30692       -4.04261        0.82704
C          0.43050       -2.66818        0.71668
C         -0.67098       -1.85321        0.72883
C         -1.92837       -2.37458        0.88498
C         -2.12334       -3.74103        1.00954
O         -1.17813       -6.00064        0.78398
C          1.57754       -4.90692        0.83167
H          1.39829       -2.21346        0.60095
H         -2.76254       -1.69386        0.89533
C         -3.54612       -4.27488        1.23875
C          3.81322        1.36275       -0.01855
C          3.28035        0.39189       -0.90461
C          1.97510       -0.02405       -0.71001
C          1.24304        0.41373        0.36118
C          1.78546        1.27755        1.27554
C          3.08087        1.74590        1.13437
O          5.05826        1.98239       -0.30736
C          4.06660       -0.17564       -2.09586
H          1.48741       -0.66386       -1.42469
H          1.16928        1.60483        2.09421
C          3.64928        2.69764        2.19807
C          1.38060       -6.18028        1.67399
C          1.94284       -5.27715       -0.61400
C          2.76240       -4.13419        1.45555
C         -3.52702       -5.57193        2.06804
C         -4.39179       -3.25027        2.02896
C         -4.22008       -4.52323       -0.11923
C         -1.34435       -6.46738       -0.54913
H          2.30110       -6.76107        1.72735
H          1.08077       -5.92550        2.68994
H          0.61166       -6.82164        1.25083
H          2.10388       -4.38058       -1.21200
H          2.85414       -5.87369       -0.64648
H          1.14913       -5.85007       -1.08706
H          3.07591       -3.29999        0.82986
H          2.49714       -3.74555        2.43839
H          3.62804       -4.78520        1.57572
H         -3.01634       -6.37354        1.54053
H         -3.01179       -5.41419        3.01495
H         -4.53888       -5.91327        2.28506
H         -3.88333       -2.95307        2.94583
H         -4.59335       -2.35519        1.44251
H         -5.35672       -3.67550        2.30412
H         -3.67021       -5.25623       -0.70440
H         -5.23756       -4.89093        0.01091
H         -4.26498       -3.60273       -0.70077
H         -2.30698       -6.96947       -0.64394
H         -1.29698       -5.63445       -1.25186
H         -0.56112       -7.18760       -0.78495
C          4.95375        3.14521       -1.12008
C          5.57507       -0.22914       -1.79450
C          3.61925       -1.62409       -2.40025
C          3.80017        0.69091       -3.33615
C          3.01558        2.41502        3.57947
C          5.16908        2.50970        2.35439
C          3.33080        4.14797        1.80354
H          5.98607        0.76535       -1.64179
H          5.76523       -0.81046       -0.89287
H          6.12270       -0.68924       -2.61663
H          4.25466       -2.07297       -3.16328
H          3.68182       -2.24364       -1.50631
H          2.59707       -1.66263       -2.77338
H          4.33477        0.30573       -4.20397
H          2.73664        0.70549       -3.57381
H          4.11648        1.71875       -3.17510
H          1.96007        2.68250        3.60171
H          3.10897        1.36122        3.84061
H          3.50861        2.99752        4.35744
H          5.56183        3.13925        3.15244
H          5.40480        1.47307        2.59274
H          5.69736        2.76991        1.44061
H          3.76755        4.40049        0.84047
H          3.71861        4.84798        2.54311
H          2.25428        4.29888        1.72866
H          3.90998        3.35039       -1.35991
H          5.38010        3.99870       -0.59318
H          5.51586        3.00022       -2.04244
