171
-217.84611471
P         -1.61308        0.42685       -0.32236
P          1.61361       -0.37265       -0.35818
C         -0.90124        1.39254       -1.65919
C          0.87624       -1.31759       -1.69276
C         -0.10521        0.78730       -2.62537
C          0.52725        1.59933       -3.58633
C          0.31193        2.96732       -3.56543
C         -0.50242        3.54486       -2.61444
C         -1.10128        2.75161       -1.65594
C          1.08661       -2.67405       -1.72568
C          0.49795       -3.44274       -2.71078
C         -0.31597       -2.84387       -3.64916
C         -0.54193       -1.47743       -3.63147
C          0.08061       -0.68988       -2.64408
Cl         1.67033        0.54122        2.76770
Cl        -1.48965       -0.33545        2.89284
C         -1.41975       -0.86489       -4.66627
C          1.42081        1.01698       -4.62517
H         -0.66600        4.61011       -2.61337
H         -1.72807        3.19576       -0.89992
H          1.71451       -3.13253       -0.97850
H          0.67184       -4.50583       -2.74344
H          0.79498        3.58261       -4.30574
H         -0.78720       -3.44083       -4.41171
C         -3.80429       -3.35185       -1.47794
C         -2.82417       -3.41941       -0.49490
C         -2.13121       -2.25498       -0.19275
C         -2.42604       -1.08068       -0.83920
C         -3.40375       -1.02677       -1.80156
C         -4.11623       -2.17088       -2.14105
H         -4.35731       -4.23748       -1.72762
H         -1.36626       -2.25529        0.56433
H         -3.61544       -0.08000       -2.26892
C         -4.48642        2.81776        2.25221
C         -3.14517        3.18496        2.23224
C         -2.28487        2.46474        1.41430
C         -2.74868        1.41115        0.66702
C         -4.07276        1.05389        0.71011
C         -4.97274        1.75347        1.50133
H         -5.16649        3.36823        2.87307
H         -1.23854        2.71624        1.37315
H         -4.40698        0.21023        0.13195
C          4.27771       -2.91536        2.29136
C          2.90480       -3.13127        2.31804
C          2.11226       -2.37208        1.46769
C          2.67260       -1.41893        0.65370
C          4.02920       -1.21041        0.64965
C          4.86352       -1.96501        1.46418
H          4.91332       -3.48906        2.93925
H          1.04350       -2.50455        1.46298
H          4.43088       -0.43875        0.01800
C          3.93235        3.25549       -1.73230
C          4.23720        2.02111       -2.29270
C          3.49814        0.91984       -1.87587
C          2.51154        1.06454       -0.93182
C          2.22252        2.29145       -0.38926
C          2.92267        3.42077       -0.79279
H          4.51248        4.11214       -2.02171
H          3.68992       -0.06170       -2.27496
H          1.45149        2.35739        0.35831
Pd         0.02922        0.12409        1.29502
C         -3.55637       -5.80278        0.01505
C         -2.48010       -4.72282        0.23994
C         -2.37880       -4.45757        1.75593
C         -1.13479       -5.24654       -0.28695
H         -4.53835       -5.44470        0.32398
H         -3.60907       -6.09710       -1.03277
H         -3.33131       -6.69879        0.59347
H         -1.57369       -3.76350        1.99084
H         -3.30774       -4.03188        2.13459
H         -2.18406       -5.38112        2.30082
H         -0.83463       -6.15526        0.23444
H         -1.20195       -5.47338       -1.35062
H         -0.35086       -4.50237       -0.15454
C         -6.58424       -2.46148       -2.42931
C         -5.26506       -2.14812       -3.15914
C         -5.01251       -3.20603       -4.24995
C         -5.39812       -0.77014       -3.83679
H         -7.42754       -2.43875       -3.11930
H         -6.55514       -3.44832       -1.96858
H         -6.77163       -1.73133       -1.64212
H         -4.06241       -3.02635       -4.75142
H         -4.98372       -4.21109       -3.83126
H         -5.80008       -3.18403       -5.00301
H         -6.20262       -0.77710       -4.57209
H         -5.62784        0.00629       -3.10743
H         -4.47969       -0.49609       -4.35460
C         -1.37564        3.85213        3.88481
C         -2.58778        4.34508        3.06899
C         -3.63842        4.89641        4.05200
C         -2.15214        5.47850        2.12429
H         -0.98953        4.64348        4.52687
H         -1.65514        3.00953        4.51682
H         -0.56209        3.52692        3.23810
H         -3.99395        4.11422        4.72253
H         -3.21414        5.69138        4.66519
H         -4.49402        5.31399        3.52183
H         -1.73337        6.31526        2.68307
H         -1.39709        5.13234        1.42041
H         -3.00019        5.84651        1.54712
C         -7.02486        1.41363        0.10216
C         -6.44299        1.31226        1.52460
C         -7.28876        2.19181        2.46483
C         -6.52455       -0.14663        2.01302
H         -6.48674        0.76950       -0.59223
H         -8.07347        1.11701        0.08706
H         -6.95705        2.43582       -0.26959
H         -6.92170        2.13599        3.48948
H         -7.27267        3.23419        2.14710
H         -8.32842        1.86455        2.46894
H         -5.98743       -0.81941        1.34528
H         -6.08762       -0.24415        3.00659
H         -7.55951       -0.48432        2.06348
C          1.23489       -3.37100        4.16931
C          2.23671       -4.12810        3.27544
C          3.26671       -4.82937        4.18121
C          1.49415       -5.19870        2.45782
H          1.73965       -2.58707        4.73332
H          0.45062       -2.89989        3.57819
H          0.75659       -4.04542        4.87913
H          3.81012       -4.10637        4.78926
H          2.77390       -5.52619        4.85914
H          3.98611       -5.39705        3.59134
H          2.18162       -5.72755        1.79797
H          1.01886       -5.93076        3.11051
H          0.71849       -4.74860        1.84199
C          6.80106       -1.29012        2.90209
C          6.38351       -1.75108        1.49394
C          6.82585       -0.67967        0.47723
C          7.09285       -3.07274        1.14598
H          6.55361       -2.03945        3.65310
H          7.87465       -1.10915        2.95156
H          6.28934       -0.36617        3.17085
H          6.37364        0.28602        0.70264
H          7.90766       -0.54882        0.49834
H          6.54735       -0.96437       -0.53727
H          8.17503       -2.94367        1.13667
H          6.85743       -3.85241        1.86935
H          6.78653       -3.42573        0.16140
C          5.47543        0.48653       -3.90044
C          5.40477        1.89663       -3.28213
C          6.72155        2.17208       -2.53408
C          5.23799        2.91875       -4.42317
H          5.66045       -0.26936       -3.13758
H          4.54805        0.23745       -4.41555
H          6.28556        0.42290       -4.62677
H          6.72944        3.17534       -2.10914
H          6.85650        1.46317       -1.71775
H          7.57731        2.08390       -3.20316
H          5.25459        3.94148       -4.04922
H          6.04270        2.82164       -5.15181
H          4.29391        2.76874       -4.94495
C          2.40575        5.81805       -1.34002
C          2.63842        4.80757       -0.20083
C          3.84392        5.24805        0.64750
C          1.38332        4.79130        0.69342
H          1.58468        5.49489       -1.97881
H          2.15696        6.80209       -0.94305
H          3.29173        5.92748       -1.96391
H          4.02694        4.53711        1.45305
H          4.74858        5.30860        0.04328
H          3.67119        6.22753        1.09311
H          0.51418        4.44843        0.13302
H          1.52043        4.13734        1.55425
H          1.16394        5.78950        1.07194
H         -1.81284        0.09738       -4.33529
H          2.32490        1.61575       -4.73636
H         -2.27040       -1.51015       -4.88695
H         -0.87261       -0.70502       -5.59624
H          0.92141        0.98179       -5.59433
H          1.72890        0.00333       -4.36554
