64
-97.21391785
Cl        -1.58803       -1.31995       -2.54716
Cl         1.63163       -1.16547       -2.94098
P          1.93635       -0.62681        0.28338
C          2.12219       -2.29987        1.05617
C          3.72793       -0.22179       -0.00278
P         -1.27994       -0.15854        0.42952
C          1.24963        0.60268        1.44892
C         -0.18012        0.82893        1.51140
C         -0.40869        1.95127        2.40884
C          0.88275        2.40703        2.89427
C          1.91206        1.55209        2.32942
H         -1.38141        2.34890        2.70465
H          1.04749        3.22099        3.60413
Pd         0.19256       -0.91126       -1.24950
H          2.98793        1.63032        2.49726
C         -5.05244        2.02807       -0.92441
C         -4.07574        2.72315       -0.24006
C         -2.92965        2.07118        0.17519
C         -2.75644        0.73291       -0.09802
C         -3.73352        0.03836       -0.77442
C         -4.88359        0.68432       -1.19136
H         -5.94653        2.53426       -1.25023
H         -4.20506        3.77226       -0.02998
H         -2.16412        2.60800        0.70646
H         -3.58939       -1.00960       -0.98206
H         -5.64371        0.13893       -1.72623
C         -2.57012       -3.99057        2.49826
C         -2.37901       -2.83962        3.23826
C         -1.99398       -1.67027        2.60685
C         -1.80088       -1.66480        1.24487
C         -1.99773       -2.80571        0.50228
C         -2.38238       -3.97578        1.12980
H         -2.86981       -4.90187        2.98963
H         -2.52800       -2.85160        4.30548
H         -1.83535       -0.76306        3.16821
H         -1.86097       -2.76789       -0.56658
H         -2.53708       -4.87186        0.55153
C          4.11302       -0.27934       -1.46476
H          3.89321        0.78711        0.39733
C          4.45600       -1.28168        0.84720
H          4.63637       -0.89144        1.85959
C          3.63038       -2.59231        0.93983
H          5.45098       -1.47842        0.42188
C          1.62315       -2.27674        2.48463
H          1.53184       -3.00132        0.45075
H          3.95623       -3.19678        1.79858
H          3.82562       -3.20989        0.05111
H          2.18877       -1.55446        3.07663
H          0.57217       -1.98710        2.53387
H          1.72652       -3.25367        2.96275
H          3.90338       -1.26828       -1.87545
H          3.55793        0.44640       -2.06075
H          5.17782       -0.08177       -1.60612
Fe         0.81547        2.48091        0.85484
C          1.31461        2.23846       -1.12798
C          2.20205        3.18751       -0.48348
C          1.38881        4.27537        0.03208
C          0.00284        3.99121       -0.29991
C         -0.04013        2.74254       -1.03857
H          1.61305        1.34412       -1.67770
H          3.29027        3.11351       -0.42329
H          1.75593        5.15840        0.56012
H         -0.85176        4.63510       -0.08055
H         -0.92408        2.27579       -1.47666
