111
-148.55339827
P         -2.19065        2.10461        1.42753
P          0.17215        0.18324        0.60530
C         -1.10184        1.43085        2.70736
C         -0.07660        0.58581        2.34368
C         -2.38031        3.93721        1.60239
C         -1.86688        4.64885        0.36938
C         -1.28254        1.76444        4.03436
H         -2.07153        2.44496        4.30956
C         -0.44383        1.23223        4.99833
H         -0.58574        1.48944        6.03531
C          0.57506        0.37355        4.63261
H          1.22786       -0.04134        5.38289
C          0.76103        0.05147        3.30004
H          1.55661       -0.61075        2.99801
Pd        -1.39924        1.38161       -0.61491
Cl        -3.16843        2.27504       -1.65727
Cl        -0.39819        0.61738       -2.47502
C         -3.89324        4.12095        1.85011
C         -3.95993        1.57820        1.56213
H         -1.96029        5.73338        0.46380
H         -0.81582        4.41468        0.18316
H         -2.43305        4.34526       -0.51290
H         -4.23368        5.04585        1.36252
H         -4.08201        4.26798        2.92358
H         -4.14139        0.87371        0.73908
C         -4.71822        2.90327        1.34517
C         -4.24962        0.92949        2.89966
H         -1.79524        4.23037        2.48473
H         -5.69434        2.85753        1.85020
H         -4.94088        3.03330        0.27573
H         -4.12934        1.64990        3.71023
H         -5.27366        0.55162        2.94892
H         -3.56943        0.09833        3.09781
C         -1.28539       -4.01191       -0.40173
C         -2.09740       -3.14367        0.37315
C         -1.59621       -1.89284        0.69900
C         -0.38408       -1.47276        0.21455
C          0.33986       -2.25666       -0.64536
C         -0.09566       -3.52210       -0.99750
O         -1.63727       -5.37893       -0.55982
C         -3.50178       -3.53546        0.85932
H         -2.15167       -1.22167        1.33126
H          1.25188       -1.85797       -1.05249
C          0.71834       -4.34967       -2.00415
C          4.39212        0.94968       -0.93225
C          4.14175       -0.17975       -0.10831
C          2.84859       -0.38809        0.34252
C          1.84900        0.50932        0.06741
C          2.11860        1.67040       -0.60889
C          3.38824        1.94129       -1.09118
O          5.60651        1.04504       -1.65924
C          5.22303       -1.18738        0.31756
H          2.60451       -1.27501        0.90251
H          1.31289        2.36393       -0.78106
C          3.62001        3.29865       -1.77564
C         -4.15899       -4.56142       -0.08220
C         -3.40420       -4.10676        2.28187
C         -4.42725       -2.29875        0.88065
C          1.53186       -3.42882       -2.94214
C          1.69524       -5.26259       -1.24853
C         -0.21396       -5.19296       -2.89267
C         -1.15522       -6.22249        0.47833
H         -3.61332       -5.50118       -0.09132
H         -5.18136       -4.77811        0.22649
H         -4.18597       -4.18178       -1.10305
H         -2.98420       -3.36897        2.96522
H         -4.38667       -4.39291        2.65642
H         -2.76314       -4.98507        2.31024
H         -4.12516       -1.58723        1.64538
H         -4.41824       -1.79109       -0.08358
H         -5.45534       -2.58621        1.09958
H          2.32709       -2.91117       -2.40759
H          2.00391       -4.00572       -3.73702
H          0.88801       -2.68276       -3.40732
H          2.31548       -5.82957       -1.94232
H          2.35324       -4.67713       -0.60739
H          1.16417       -5.97215       -0.61918
H         -0.93517       -4.55636       -3.40416
H          0.35158       -5.73980       -3.64666
H         -0.76881       -5.92017       -2.30425
H         -0.63201       -7.07234        0.03989
H         -0.47583       -5.67241        1.13065
H         -1.99083       -6.60295        1.06491
C          5.53436        0.42107       -2.93057
C          6.64694       -0.66422        0.06059
C          5.10749       -1.45190        1.83509
C          5.01625       -2.50923       -0.44028
C          2.94077        3.29491       -3.15542
C          3.00280        4.42157       -0.91255
C          5.11458        3.62597       -1.93697
H          6.83974       -0.55135       -1.00356
H          6.78974        0.30807        0.53081
H          7.39510       -1.34870        0.45975
H          5.90937       -2.10552        2.17755
H          5.17268       -0.51864        2.39377
H          4.16544       -1.93331        2.09198
H          5.09606       -2.36395       -1.51590
H          5.76030       -3.24853       -0.14493
H          4.03088       -2.92448       -0.23325
H          1.87287        3.09917       -3.06326
H          3.06454        4.25613       -3.65342
H          3.36291        2.52633       -3.79976
H          3.40701        4.39503        0.09899
H          3.22125        5.40148       -1.33625
H          1.91984        4.33266       -0.84544
H          5.59919        2.93112       -2.61870
H          5.62705        3.56461       -0.97756
H          5.25611        4.63049       -2.33505
H          5.30058       -0.63607       -2.81593
H          4.75640        0.88788       -3.53233
H          6.49387        0.52549       -3.43748
