105
-153.06792798
Cl        -0.07884        1.76604        3.14872
Pd        -0.58736        1.21369        1.02918
P         -1.20836        0.50724       -1.11977
N         -0.90693       -1.03878       -1.89787
C          0.10680       -1.96163       -1.62898
C          0.34005       -2.47655       -0.32660
C          1.34571       -3.44838       -0.13940
C          1.55227       -4.03252        1.23860
C          2.84187       -4.85325        1.40260
C          3.06650       -5.77479        0.20116
C          3.16367       -4.95741       -1.09483
C          2.08742       -3.90972       -1.23106
C          1.82367       -3.40575       -2.49810
C          0.85191       -2.46121       -2.69673
H          0.66014       -2.08187       -3.68527
H          2.39956       -3.76697       -3.33334
H          4.14096       -4.46383       -1.14867
H          3.96475       -6.39215        0.34449
H          3.69662       -4.17216        1.49989
H          1.54547       -3.21770        1.97102
C         -0.61391       -2.19050        0.77336
C         -0.16341       -1.58041        1.97656
C         -1.05237       -1.49024        3.05228
C         -2.34152       -1.94225        2.94304
C         -2.80621       -2.52481        1.77054
C         -4.23370       -3.01726        1.74182
C         -4.73032       -3.45228        0.35322
C         -3.64232       -4.22136       -0.40087
C         -2.39057       -3.35033       -0.57979
C         -1.93880       -2.66051        0.68419
H         -1.56408       -3.95624       -0.97180
H         -4.01565       -4.57660       -1.37182
H         -5.01442       -2.56739       -0.22953
H         -4.88384       -2.23171        2.14759
H         -3.01459       -1.84763        3.77839
H         -0.71985       -1.01961        3.96084
N          1.10699       -0.99905        2.09153
P          1.53982        0.19485        0.86933
C          2.66775       -0.40189       -0.37935
C          2.55502        0.07365       -1.66117
C          3.46359       -0.32841       -2.62283
C          4.50115       -1.19165       -2.29481
C          4.60751       -1.64404       -0.98596
C          3.69421       -1.24367       -0.02723
H          3.77318       -1.58286        0.99341
H          5.40866       -2.31315       -0.72250
C          5.45518       -1.66190       -3.33643
H          3.36805        0.02344       -3.63574
H          1.75290        0.74987       -1.90079
C          2.37145        1.62187        1.58055
C          3.15053        1.48790        2.70412
C          3.79174        2.59548        3.22863
C          3.65527        3.84116        2.63027
C          2.88163        3.94987        1.48255
C          2.24198        2.84172        0.95845
H          1.63729        2.92383        0.06847
H          2.78154        4.90814        1.00212
C          4.36029        5.03004        3.18419
H          4.40348        2.49839        4.10922
H          3.26050        0.51937        3.16417
H          1.28119       -0.53499        2.97347
H         -1.19842       -0.91978       -2.85964
C         -0.51939        1.85093       -2.09411
C         -0.60068        3.13736       -1.61548
C         -0.03632        4.17767       -2.32840
C          0.61252        3.93658       -3.53157
C          0.65878        2.63619       -4.01580
C          0.09311        1.59791       -3.29889
H          0.14532        0.58719       -3.66781
H          1.14480        2.44119       -4.95653
C          1.20682        5.05813       -4.31017
H         -0.09854        5.18537       -1.95444
H         -1.12069        3.32154       -0.68918
C         -2.99488        0.67747       -1.13271
C         -3.60840        1.38538       -2.13863
C         -4.98572        1.51244       -2.14834
C         -5.75633        0.92670       -1.15294
C         -5.11664        0.22194       -0.14286
C         -3.74011        0.09151       -0.14010
H         -3.23742       -0.45144        0.64252
H         -5.70303       -0.21647        0.64632
C         -7.23633        1.08931       -1.14142
H         -5.47061        2.07399       -2.92849
H         -3.00797        1.84085       -2.90980
Cl        -2.45061        2.47404        1.08209
H          3.12450       -5.62291       -1.96679
H          2.82011       -5.43157        2.33709
H          2.23105       -6.48211        0.12448
H          0.68331       -4.65447        1.48404
H         -3.37876       -5.12499        0.16295
H         -2.58293       -2.58568       -1.34112
H         -4.32179       -3.85699        2.44156
H         -5.64614       -4.05442        0.43626
H          5.56053       -0.92688       -4.13561
H          6.44558       -1.83519       -2.91316
H          5.11108       -2.59650       -3.78171
H          3.80313        5.94627        2.98385
H          4.48171        4.94724        4.26512
H          5.35139        5.13444        2.74062
H          2.05874        4.71913       -4.90130
H          0.47240        5.48756       -4.99292
H          1.55792        5.85253       -3.65002
H         -7.52482        1.95967       -0.55056
H         -7.62648        1.22341       -2.15129
H         -7.72464        0.21353       -0.71160
