105
-153.06598973
Cl         0.12220        2.71953        2.75421
Pd        -0.21775        1.72426        0.75557
P         -0.70129        0.51279       -1.20496
N          0.43478       -0.76571       -1.61924
C          0.51075       -2.15447       -1.42895
C         -0.01327       -2.83765       -0.29825
C          0.28920       -4.20341       -0.11116
C         -0.09302       -4.87497        1.18749
C          0.75328       -6.11761        1.49783
C          0.76878       -7.06159        0.29190
C          1.36036       -6.36770       -0.94697
C          1.01383       -4.90285       -1.07974
C          1.48681       -4.22098       -2.19372
C          1.26363       -2.87826       -2.35208
H          1.66962       -2.35777       -3.20233
H          2.06270       -4.75954       -2.92741
H          2.45304       -6.46020       -0.92940
H          1.32084       -7.98269        0.52608
H          1.77982       -5.80850        1.73136
H         -0.01223       -4.14860        2.00597
C         -0.68737       -2.09577        0.79560
C          0.09545       -1.21841        1.58715
C         -0.49017       -0.59706        2.68929
C         -1.80675       -0.82003        2.99929
C         -2.59555       -1.67343        2.23510
C         -4.02867       -1.89030        2.66769
C         -4.86424       -2.81751        1.76293
C         -3.99842       -3.89900        1.10722
C         -2.87967       -3.23962        0.29147
C         -2.03416       -2.31823        1.12997
H         -2.25956       -3.98839       -0.21333
H         -4.60348       -4.57093        0.48230
H         -5.34688       -2.22316        0.97760
H         -4.51535       -0.91048        2.75295
H         -2.24740       -0.32504        3.84803
H          0.10229        0.08246        3.27546
N          1.40964       -0.94167        1.20599
P          1.88372        0.74762        1.08507
C          2.71372        1.03461       -0.47640
C          2.37661        2.13771       -1.22474
C          2.86961        2.27139       -2.50881
C          3.69104        1.29574       -3.05525
C          4.04428        0.20449       -2.27331
C          3.55689        0.07428       -0.98525
H          3.80340       -0.78955       -0.38802
H          4.69520       -0.54885       -2.68336
C          4.21138        1.43682       -4.44313
H          2.59790        3.12627       -3.10434
H          1.70911        2.88005       -0.81643
C          2.82772        1.32300        2.48661
C          2.97280        0.49280        3.57134
C          3.67900        0.92771        4.67870
C          4.24583        2.19543        4.69941
C          4.07876        3.02110        3.59505
C          3.37254        2.58416        2.48861
H          3.23539        3.22322        1.63058
H          4.50021        4.01168        3.60934
C          4.97964        2.67813        5.90195
H          3.79031        0.28541        5.53548
H          2.53216       -0.49107        3.54330
H          1.68098       -1.34636        0.31681
H          1.28573       -0.28000       -1.87937
C         -0.55829        1.70630       -2.54104
C         -0.93616        3.01861       -2.38991
C         -0.78325        3.90727       -3.43638
C         -0.24997        3.48730       -4.64734
C          0.10252        2.15269       -4.79319
C         -0.05084        1.26715       -3.74140
H          0.23228        0.23254       -3.84915
H          0.50223        1.81191       -5.73296
C         -0.09853        4.43947       -5.78203
H         -1.07889        4.93579       -3.31857
H         -1.35520        3.34087       -1.45242
C         -2.36551       -0.13313       -1.32662
C         -2.60975       -1.03720       -2.33368
C         -3.89544       -1.50557       -2.54428
C         -4.94360       -1.06965       -1.74487
C         -4.67706       -0.15328       -0.73583
C         -3.39454        0.32146       -0.53749
H         -3.19785        1.07569        0.20456
H         -5.48285        0.19704       -0.11372
C         -6.31781       -1.60570       -1.94806
H         -4.09007       -2.22009       -3.32566
H         -1.79048       -1.37151       -2.95084
Cl        -2.08960        2.95551        0.55453
H          1.03977       -6.88561       -1.85989
H          0.38598       -6.63223        2.39704
H         -0.25772       -7.38312        0.07458
H         -1.14924       -5.16130        1.14999
H         -3.55584       -4.53208        1.88618
H         -3.32580       -2.65356       -0.51559
H         -4.01475       -2.29527        3.68680
H         -5.68936       -3.27263        2.32839
H          4.36449        0.46133       -4.90689
H          3.51342        1.99428       -5.06960
H          5.16510        1.96617       -4.44768
H          5.76029        3.38912        5.62785
H          4.30024        3.17502        6.59577
H          5.45611        1.85159        6.43095
H          0.06659        5.45643       -5.42343
H          0.75049        4.16919       -6.41156
H         -0.99312        4.44355       -6.40617
H         -6.40317       -2.61592       -1.54525
H         -7.06407       -0.98288       -1.45309
H         -6.56908       -1.64400       -3.00888
