171
-217.83806954
P         -1.46165        0.27657       -0.32605
P          1.71054       -0.64777       -0.10764
C         -0.69890        0.98766       -1.79420
C          0.98768       -1.74342       -1.35837
C          0.02480        0.17310       -2.65496
C          0.63293        0.74672       -3.78925
C          0.46483        2.09905       -4.03557
C         -0.25225        2.89359       -3.16762
C         -0.82350        2.33374       -2.04219
C          1.18142       -3.09350       -1.18058
C          0.55563       -4.01057       -2.00146
C         -0.29737       -3.56889       -2.98862
C         -0.51472       -2.21694       -3.18797
C          0.16604       -1.28129       -2.38471
Cl         1.35862       -0.63566        3.11816
Cl        -1.78793       -1.10486        2.71258
C         -1.48349       -1.78948       -4.23514
C          1.43855       -0.08060       -4.72954
H         -0.36386        3.94697       -3.36597
H         -1.35827        2.95821       -1.34722
H          1.83089       -3.44023       -0.39508
H          0.71921       -5.06623       -1.85755
H          0.90507        2.52953       -4.91879
H         -0.80883       -4.27772       -3.61791
C         -4.28688       -3.08711       -1.44994
C         -3.22653       -3.35525       -0.59350
C         -2.37901       -2.30677       -0.26237
C         -2.58912       -1.04761       -0.76748
C         -3.63619       -0.80392       -1.62083
C         -4.51212       -1.82092       -1.97799
H         -4.95522       -3.88910       -1.70083
H         -1.54375       -2.46958        0.39473
H         -3.77248        0.18614       -2.01760
C         -3.83854        3.57790        1.73662
C         -4.03654        3.32895        0.38545
C         -3.30937        2.29960       -0.19884
C         -2.39834        1.57286        0.53030
C         -2.21568        1.84624        1.86516
C         -2.93460        2.85055        2.49791
H         -4.41330        4.35163        2.21149
H         -3.43558        2.07414       -1.24263
H         -1.51859        1.25840        2.43009
C          5.16043       -2.66548        2.04053
C          3.87729       -3.16867        2.21141
C          2.83889       -2.53623        1.54057
C          3.08163       -1.45093        0.73562
C          4.35680       -0.96376        0.58447
C          5.42657       -1.56464        1.23606
H          5.97458       -3.13631        2.56030
H          1.82096       -2.86069        1.67524
H          4.50975       -0.09922       -0.03545
C          2.91399        3.54181       -1.32431
C          1.96567        3.38612       -0.32144
C          1.61040        2.09242        0.03649
C          2.15990        1.01333       -0.61481
C          3.08427        1.18569       -1.61546
C          3.49179        2.46285       -1.98187
H          3.22349        4.53523       -1.59213
H          0.89752        1.91962        0.82277
H          3.48661        0.31370       -2.10252
Pd        -0.07233       -0.51078        1.39166
C         -2.87137       -5.77383       -1.16594
C         -3.03539       -4.76463       -0.01530
C         -4.26863       -5.13378        0.82873
C         -1.78635       -4.84475        0.88643
H         -3.75117       -5.79089       -1.80795
H         -2.01171       -5.51662       -1.78321
H         -2.71982       -6.78224       -0.78134
H         -5.17475       -5.13869        0.22400
H         -4.15684       -6.12331        1.27154
H         -4.40922       -4.41578        1.63652
H         -1.65714       -5.85249        1.28068
H         -0.88399       -4.59000        0.33173
H         -1.87125       -4.16763        1.73618
C         -6.64467       -0.52527       -2.13678
C         -5.71160       -1.49801       -2.88114
C         -6.50893       -2.76519       -3.24490
C         -5.22145       -0.84409       -4.18726
H         -7.51285       -0.27244       -2.74511
H         -7.00015       -0.96862       -1.20686
H         -6.12867        0.40100       -1.88729
H         -5.87752       -3.49065       -3.75773
H         -6.92646       -3.23654       -2.35546
H         -7.33960       -2.52217       -3.90745
H         -4.55739       -1.51560       -4.73010
H         -6.06066       -0.60465       -4.84012
H         -4.67994        0.08084       -3.99319
C         -4.63326        5.66535       -0.30269
C         -5.03146        4.18157       -0.41433
C         -6.44635        3.97561        0.15518
C         -5.04196        3.79584       -1.90707
H         -5.30603        6.29464       -0.88510
H         -4.66733        6.00972        0.73015
H         -3.62009        5.82003       -0.67379
H         -7.17992        4.55899       -0.40102
H         -6.73482        2.92613        0.09734
H         -6.49974        4.27991        1.19989
H         -5.35119        2.76020       -2.04407
H         -5.73909        4.42231       -2.46335
H         -4.05533        3.92421       -2.35219
C         -2.47231        4.61597        4.23113
C         -2.79258        3.12722        4.00198
C         -1.66269        2.28667        4.63108
C         -4.11623        2.76858        4.70053
H         -3.26446        5.25845        3.84909
H         -2.35659        4.82942        5.29362
H         -1.54507        4.89262        3.73135
H         -1.87010        1.22025        4.54558
H         -0.70635        2.49151        4.15054
H         -1.55530        2.51468        5.69128
H         -4.05035        2.93958        5.77484
H         -4.93985        3.36864        4.31503
H         -4.36285        1.71929        4.53936
C          4.05583       -3.98007        4.57353
C          3.63359       -4.36329        3.14370
C          4.46144       -5.56735        2.65883
C          2.14646       -4.77114        3.16697
H          3.87633       -4.80111        5.26736
H          5.11488       -3.72898        4.61931
H          3.49163       -3.11438        4.92010
H          4.19030       -5.83386        1.63740
H          5.52833       -5.34804        2.67563
H          4.29073       -6.43813        3.29163
H          1.99029       -5.62748        3.82274
H          1.52222       -3.95722        3.53540
H          1.79994       -5.04978        2.17185
C          7.36718       -0.59971        2.49472
C          6.86284       -1.03719        1.10746
C          6.94097        0.17310        0.15577
C          7.76811       -2.15187        0.55175
H          7.37888       -1.43551        3.19330
H          8.37965       -0.20091        2.43422
H          6.72305        0.17473        2.91080
H          6.60187       -0.09445       -0.84447
H          6.33038        0.99936        0.51949
H          7.96595        0.53380        0.07080
H          8.79165       -1.79806        0.42906
H          7.79157       -3.01325        1.21815
H          7.40903       -2.49004       -0.42012
C          2.50080        5.33515        1.15394
C          1.37958        4.62002        0.37971
C          0.26477        4.23586        1.37096
C          0.77814        5.57754       -0.66626
H          2.11716        6.21079        1.67729
H          2.94414        4.66721        1.89227
H          3.29332        5.66573        0.48337
H          0.64613        3.59770        2.16751
H         -0.15909        5.12578        1.83501
H         -0.54443        3.71184        0.86425
H         -0.01631        5.08617       -1.22608
H          0.35257        6.45899       -0.18688
H          1.53011        5.91710       -1.37712
C          4.00421        3.57750       -4.17334
C          4.57657        2.70649       -3.04069
C          5.08500        1.38562       -3.65019
C          5.76805        3.42751       -2.38322
H          3.16103        3.08086       -4.65091
H          3.65806        4.54005       -3.79892
H          4.75796        3.76825       -4.93708
H          5.52604        0.74504       -2.88734
H          4.27634        0.83878       -4.13295
H          5.84993        1.57601       -4.40288
H          5.47173        4.39507       -1.97981
H          6.17264        2.83354       -1.56397
H          6.56771        3.59728       -3.10400
H         -1.08633       -1.97111       -5.23470
H          1.95713       -0.88292       -4.20235
H         -1.72354       -0.72871       -4.15177
H         -2.41711       -2.34579       -4.14011
H          2.19217        0.52207       -5.23828
H          0.80475       -0.53190       -5.49358
