171
-217.83481097
P         -1.70705        0.64862        0.25820
P          1.49256       -0.20710       -0.29287
C         -0.98463        1.78764       -0.95021
C          0.59290       -0.89485       -1.70107
C         -0.30640        1.39016       -2.09699
C          0.31177        2.37059       -2.89513
C          0.19083        3.70459       -2.54532
C         -0.49520        4.08306       -1.41146
C         -1.06894        3.11685       -0.60765
C          0.68459       -2.22927       -2.01643
C          0.00078       -2.74066       -3.10147
C         -0.79784       -1.91096       -3.85921
C         -0.93794       -0.57095       -3.53948
C         -0.21027       -0.04702       -2.45330
Cl         2.12433        1.31686        2.56851
Cl        -0.93055        0.60947        3.46059
C         -1.84360        0.29204       -4.34706
C          1.10878        2.00754       -4.09920
H         -0.57433        5.12473       -1.14647
H         -1.58359        3.39637        0.29981
H          1.26899       -2.88540       -1.39661
H          0.08282       -3.78629       -3.34948
H          0.65066        4.45022       -3.17173
H         -1.32672       -2.30365       -4.71081
C         -2.71926       -3.62578       -0.85414
C         -1.67182       -3.41317        0.03294
C         -1.35711       -2.10018        0.36279
C         -2.05150       -1.05530       -0.20246
C         -3.08536       -1.28687       -1.07615
C         -3.44603       -2.58481       -1.41612
H         -2.99032       -4.63568       -1.10119
H         -0.56610       -1.88562        1.05840
H         -3.61884       -0.44360       -1.47867
C         -5.66214        2.48269        1.51022
C         -5.30587        2.47273        0.16603
C         -4.08489        1.90709       -0.17829
C         -3.25941        1.38236        0.78545
C         -3.62681        1.40422        2.10555
C         -4.83819        1.95442        2.49782
H         -6.60122        2.91627        1.79511
H         -3.76641        1.88705       -1.20760
H         -2.94831        1.00659        2.83794
C          3.95559       -3.50938        1.67694
C          3.22238       -2.65458        2.48962
C          2.47543       -1.65963        1.87676
C          2.47009       -1.50592        0.51088
C          3.23850       -2.33762       -0.26840
C          3.97911       -3.36900        0.29476
H          4.52718       -4.29554        2.13101
H          1.91484       -0.98048        2.49034
H          3.25564       -2.19267       -1.33460
C          4.35629        2.95120       -1.82990
C          3.48408        3.28721       -0.80246
C          2.61916        2.30542       -0.33832
C          2.63733        1.04357       -0.87720
C          3.50439        0.72984       -1.89437
C          4.38369        1.68173       -2.39559
H          5.03541        3.70189       -2.18768
H          1.92533        2.51941        0.45423
H          3.49104       -0.26430       -2.30617
Pd         0.24155        0.65284        1.54196
C         -0.42469       -5.54564       -0.46136
C         -0.94768       -4.61800        0.65205
C         -1.93514       -5.38824        1.54672
C          0.25025       -4.17828        1.51060
H         -1.23764       -5.93571       -1.07208
H          0.26191       -5.01313       -1.11766
H          0.10972       -6.39632       -0.03872
H         -2.78363       -5.75631        0.97086
H         -1.45109       -6.24477        2.01563
H         -2.32104       -4.74378        2.33641
H          0.76321       -5.04111        1.93513
H          0.97326       -3.62761        0.91190
H         -0.07210       -3.54418        2.33549
C         -4.13343       -3.66357       -3.57654
C         -4.63148       -2.89106       -2.34251
C         -5.32694       -1.60102       -2.81843
C         -5.66300       -3.74293       -1.57930
H         -3.64864       -4.59658       -3.29163
H         -4.95982       -3.90620       -4.24438
H         -3.41355       -3.06901       -4.13656
H         -5.71499       -1.03387       -1.97279
H         -4.63911       -0.96556       -3.37505
H         -6.16633       -1.83211       -3.47409
H         -6.53205       -3.95400       -2.20223
H         -5.23783       -4.69615       -1.26753
H         -6.00650       -3.22131       -0.68613
C         -5.42623        4.20971       -1.63538
C         -6.19164        3.07032       -0.93655
C         -7.50614        3.63914       -0.36884
C         -6.53689        1.97447       -1.96202
H         -5.15328        4.98521       -0.91997
H         -4.50967        3.84548       -2.09831
H         -6.03436        4.66782       -2.41517
H         -8.12317        4.05479       -1.16542
H         -8.08773        2.86228        0.12720
H         -7.31169        4.43746        0.34714
H         -7.18315        2.36494       -2.74793
H         -5.63939        1.57926       -2.43635
H         -7.05511        1.14604       -1.47953
C         -5.23297        0.52352        4.51843
C         -5.20589        1.96941        3.98853
C         -6.58840        2.60483        4.23058
C         -4.15057        2.78300        4.76101
H         -4.25788        0.04775        4.42054
H         -5.51066        0.49915        5.57199
H         -5.95492       -0.07602        3.96435
H         -6.83448        2.60174        5.29240
H         -6.60951        3.64022        3.89109
H         -7.37042        2.05288        3.70943
H         -4.09843        3.80351        4.38231
H         -4.39254        2.82802        5.82263
H         -3.16014        2.33985        4.66387
C          1.81418       -2.92626        4.55766
C          3.24583       -2.73359        4.02375
C          3.82828       -1.42096        4.58138
C          4.11236       -3.90594        4.52146
H          1.38837       -3.85939        4.19104
H          1.80755       -2.96189        5.64682
H          1.16049       -2.11112        4.24954
H          4.83392       -1.25237        4.19707
H          3.21600       -0.56537        4.29884
H          3.88147       -1.44783        5.66946
H          4.11331       -3.95049        5.61050
H          3.73211       -4.85840        4.15252
H          5.14656       -3.79581        4.19587
C          3.73870       -5.10996       -1.48622
C          4.74807       -4.33123       -0.62231
C          5.58679       -5.34097        0.18457
C          5.69731       -3.52977       -1.53283
H          3.15752       -4.43734       -2.11609
H          4.24776       -5.82031       -2.13733
H          3.04214       -5.66526       -0.85824
H          4.95234       -5.96852        0.81017
H          6.14408       -5.99984       -0.48127
H          6.30715       -4.82966        0.82292
H          5.14393       -2.86624       -2.19566
H          6.37946       -2.92186       -0.93880
H          6.29369       -4.19542       -2.15659
C          4.90951        4.94622        0.41808
C          3.51818        4.69511       -0.19124
C          2.46347        4.85628        0.92191
C          3.23420        5.73836       -1.28678
H          4.96116        5.93172        0.88056
H          5.13338        4.20210        1.18226
H          5.68956        4.89204       -0.34041
H          2.64170        4.15391        1.73591
H          2.49390        5.86151        1.34167
H          1.45787        4.68984        0.53732
H          3.97823        5.69308       -2.08107
H          2.25579        5.56929       -1.73429
H          3.24598        6.74778       -0.87603
C          6.15016        2.51047       -4.03135
C          5.37945        1.28800       -3.49647
C          4.62911        0.63902       -4.67576
C          6.38896        0.28373       -2.91300
H          6.75733        2.96691       -3.24999
H          6.82181        2.22062       -4.83937
H          5.46568        3.26306       -4.42265
H          3.89889        1.32943       -5.09615
H          5.32156        0.36090       -5.47011
H          4.10189       -0.26302       -4.36823
H          7.11582       -0.02356       -3.66467
H          6.93141        0.72427       -2.07671
H          5.88404       -0.60945       -2.54818
H         -2.69915       -0.27487       -4.71702
H          2.05231        2.55533       -4.11374
H         -1.32057        0.70680       -5.20959
H         -2.23090        1.12193       -3.75381
H          0.56681        2.24911       -5.01453
H          1.34639        0.94310       -4.11588
