171
-217.83948998
P         -1.62550        0.51669        0.05759
P          1.53994       -0.40112       -0.29031
C         -0.77134        1.60652       -1.10247
C          0.74557       -1.10838       -1.73507
C         -0.11818        1.16111       -2.24681
C          0.54601        2.10309       -3.05655
C          0.51960        3.44207       -2.70379
C         -0.12465        3.86328       -1.56097
C         -0.75982        2.93731       -0.75714
C          0.90613       -2.44286       -2.01038
C          0.27753       -2.99883       -3.10823
C         -0.51644       -2.21058       -3.91661
C         -0.68810       -0.86044       -3.65534
C         -0.02929       -0.29152       -2.54883
Cl         1.91469        0.30404        2.88476
Cl        -1.25126       -0.46130        3.26656
C         -1.53299       -0.03029       -4.55687
C          1.29921        1.69360       -4.27405
H         -0.13078        4.90702       -1.29273
H         -1.25060        3.25278        0.15144
H          1.53050       -3.04466       -1.36949
H          0.40878       -4.04433       -3.33397
H          1.03002        4.15621       -3.32792
H         -1.01054       -2.64371       -4.76979
C         -3.53553       -3.26214       -1.55206
C         -3.92106       -2.03643       -2.07883
C         -3.29403       -0.89477       -1.59338
C         -2.32267       -0.99014       -0.62670
C         -1.96356       -2.21091       -0.10897
C         -2.57325       -3.37568       -0.55662
H         -4.01648       -4.14833       -1.92076
H         -3.56883        0.08024       -1.95560
H         -1.21654       -2.25198        0.66362
C         -5.15969        2.92993        1.58410
C         -4.45708        2.14806        2.49224
C         -3.37792        1.41543        2.01850
C         -3.01919        1.46599        0.69622
C         -3.73174        2.23859       -0.18850
C         -4.81664        2.99262        0.23887
H         -5.99339        3.50405        1.94227
H         -2.80028        0.79662        2.67925
H         -3.42585        2.26965       -1.22107
C          4.26318       -3.32506        1.88155
C          2.89325       -3.42027        2.10057
C          2.05656       -2.57633        1.38009
C          2.57773       -1.63892        0.52117
C          3.93507       -1.55133        0.33403
C          4.80738       -2.39948        1.00019
H          4.92332       -3.97538        2.42213
H          0.99155       -2.62356        1.52368
H          4.32699       -0.79167       -0.31848
C          4.25699        3.07392       -1.28364
C          3.37301        3.19860       -0.21929
C          2.54345        2.12158        0.06327
C          2.57863        0.99419       -0.71744
C          3.44144        0.89495       -1.78163
C          4.31237        1.93646       -2.07980
H          4.94053        3.87846       -1.48265
H          1.87683        2.14382        0.90731
H          3.43839       -0.01016       -2.36505
Pd         0.12404       -0.00368        1.54928
C         -5.33705       -0.53326       -3.56785
C         -5.04678       -1.97923       -3.12173
C         -6.33413       -2.55930       -2.50608
C         -4.64677       -2.80817       -4.35611
H         -4.45621       -0.06993       -4.00964
H         -6.13128       -0.50993       -4.31387
H         -5.66041        0.07525       -2.72401
H         -7.16083       -2.51263       -3.21477
H         -6.20131       -3.60126       -2.21738
H         -6.62034       -1.99946       -1.61585
H         -5.41868       -2.76118       -5.12406
H         -3.71864       -2.43756       -4.78825
H         -4.49773       -3.85602       -4.09842
C         -2.18918       -4.63124        1.58789
C         -2.17696       -4.72959        0.04917
C         -0.77007       -5.10201       -0.44369
C         -3.15459       -5.84754       -0.36408
H         -1.46989       -3.89917        1.95086
H         -3.17468       -4.33342        1.94512
H         -1.94249       -5.59069        2.04214
H         -0.04637       -4.33663       -0.16847
H         -0.44342       -6.05141       -0.01999
H         -0.75783       -5.19747       -1.52878
H         -2.89348       -6.78769        0.12172
H         -4.17632       -5.59813       -0.07808
H         -3.12769       -6.01882       -1.43988
C         -3.96752        1.19948        4.80377
C         -4.87991        2.11942        3.96830
C         -6.32459        1.59762        4.07310
C         -4.79688        3.54312        4.54885
H         -4.27872        1.18992        5.84816
H         -4.00479        0.17317        4.43935
H         -2.93232        1.53845        4.77149
H         -6.64692        1.54783        5.11302
H         -7.01954        2.24492        3.53949
H         -6.40381        0.59778        3.64670
H         -5.07116        3.55088        5.60361
H         -3.78398        3.93557        4.46049
H         -5.46661        4.22462        4.02571
C         -6.08149        3.00385       -1.92902
C         -5.56175        3.87647       -0.77129
C         -4.59083        4.93842       -1.32036
C         -6.76218        4.59433       -0.12528
H         -6.64637        3.60102       -2.64463
H         -5.26099        2.53135       -2.46749
H         -6.73612        2.21725       -1.55422
H         -4.19731        5.55463       -0.51217
H         -3.74540        4.47566       -1.82860
H         -5.09105        5.59390       -2.03300
H         -6.43898        5.25315        0.68047
H         -7.28733        5.20593       -0.85889
H         -7.47636        3.87696        0.27866
C          3.38625       -5.07444        3.97502
C          2.29297       -4.37743        3.14187
C          1.46340       -5.45350        2.42500
C          1.38906       -3.58002        4.10395
H          2.94186       -5.71790        4.73428
H          4.02136       -5.69972        3.34794
H          4.01334       -4.34412        4.48615
H          0.63998       -5.00153        1.87782
H          2.07704       -6.00712        1.71451
H          1.04217       -6.16347        3.13658
H          0.98306       -4.22479        4.88298
H          1.95137       -2.78009        4.58496
H          0.54872       -3.12580        3.58102
C          6.63242       -2.42455       -0.72061
C          6.31776       -2.24006        0.77586
C          7.12719       -3.27715        1.57724
C          6.74574       -0.82955        1.22390
H          6.11969       -1.68017       -1.32832
H          7.70150       -2.32848       -0.90943
H          6.31591       -3.40994       -1.06188
H          6.96138       -3.16226        2.64822
H          6.85461       -4.29290        1.29127
H          8.19525       -3.15801        1.39538
H          6.23214       -0.05846        0.65064
H          6.51080       -0.67306        2.27648
H          7.81780       -0.68562        1.09104
C          3.17771        5.70170       -0.27921
C          3.36618        4.47460        0.63267
C          4.70518        4.58376        1.38285
C          2.22110        4.45869        1.66520
H          2.25342        5.61854       -0.84992
H          3.13076        6.61925        0.30703
H          3.99951        5.80284       -0.98679
H          5.54243        4.63782        0.68773
H          4.73073        5.47522        2.00925
H          4.85823        3.71533        2.02340
H          2.20077        5.38736        2.23516
H          1.25399        4.34909        1.17497
H          2.34248        3.64134        2.37562
C          5.31921        3.06220       -4.09778
C          5.37403        1.82309       -3.18341
C          5.15829        0.56851       -4.05280
C          6.76234        1.73028       -2.52466
H          4.33137        3.17462       -4.54242
H          5.54467        3.97504       -3.54831
H          6.04372        2.97884       -4.90775
H          5.25836       -0.34219       -3.46297
H          4.17084        0.57421       -4.51301
H          5.89658        0.52139       -4.85318
H          6.82086        0.86125       -1.86970
H          7.54673        1.64065       -3.27595
H          6.97156        2.61497       -1.92401
H         -0.95666        0.32841       -5.41037
H          0.75403        1.96367       -5.17946
H         -1.93734        0.83679       -4.03230
H         -2.37361       -0.60419       -4.94650
H          1.47981        0.61819       -4.29279
H          2.26936        2.18924       -4.31017
