111
-148.55401077
P         -1.72742        2.75371        0.58915
P         -0.55942       -0.17439        0.41792
C         -1.66245        1.71913        2.08007
C         -1.22265        0.41568        1.98716
C         -0.51787        4.14557        0.73905
C          0.57413        4.02301       -0.30261
C         -2.01441        2.23794        3.30994
H         -2.31438        3.27011        3.38590
C         -1.95314        1.43923        4.43883
H         -2.23195        1.84340        5.39829
C         -1.52868        0.12813        4.33902
H         -1.47557       -0.49177        5.21885
C         -1.15146       -0.38213        3.11000
H         -0.78273       -1.39159        3.01997
Pd        -1.45237        1.26322       -1.16217
Cl        -2.75244        2.55601       -2.44750
Cl        -0.98255       -0.28320       -2.72516
C         -1.39594        5.40450        0.59186
C         -3.30444        3.71552        0.44219
H          1.13965        3.09682       -0.18202
H          0.14855        4.01672       -1.30818
H          1.27807        4.85641       -0.24376
H         -1.31754        5.76822       -0.44179
H         -1.00530        6.21947        1.21966
H         -3.53543        3.74892       -0.63016
C         -2.88836        5.11720        0.92249
C         -4.45259        3.08591        1.20178
H         -0.10498        4.07919        1.75396
H         -3.04755        5.18480        2.00731
H         -3.54397        5.88323        0.48072
H         -5.37580        3.65478        1.07030
H         -4.63454        2.06284        0.86497
H         -4.24483        3.04564        2.27113
C         -0.66068       -4.68540       -0.16866
C          0.34598       -4.09614        0.63858
C          0.34631       -2.71854        0.78334
C         -0.64416       -1.94960        0.23018
C         -1.68082       -2.52402       -0.45643
C         -1.73698       -3.89491       -0.64730
O         -0.56950       -6.05588       -0.53040
C          1.45108       -4.91690        1.32176
H          1.13714       -2.22031        1.31805
H         -2.43554       -1.87755       -0.87000
C         -2.92754       -4.49269       -1.41298
C          3.74284        1.27768        0.05274
C          3.05194        1.42467        1.28283
C          1.75896        0.93819        1.37132
C          1.13637        0.38798        0.28220
C          1.76116        0.34140       -0.93531
C          3.05137        0.81473       -1.09583
O          5.13154        1.56640       -0.01995
C          3.69019        2.08408        2.51503
H          1.21615        0.98562        2.29862
H          1.20534       -0.04902       -1.76967
C          3.67444        0.81822       -2.50025
C          2.65980       -5.02493        0.37960
C          1.90678       -4.23234        2.63090
C          0.94655       -6.32033        1.70368
C         -2.60465       -4.50911       -2.91498
C         -3.24860       -5.91571       -0.92126
C         -4.20027       -3.64356       -1.19333
C          0.16477       -6.29116       -1.72557
H          3.04247       -4.03568        0.12910
H          3.46677       -5.59184        0.84314
H          2.39217       -5.52066       -0.55040
H          2.42725       -3.29555        2.43729
H          1.05391       -4.02439        3.27655
H          2.59565       -4.87199        3.18222
H          1.71038       -6.87741        2.24563
H          0.06333       -6.25086        2.33777
H          0.67973       -6.89991        0.82364
H         -1.72660       -5.11563       -3.12306
H         -3.43749       -4.91351       -3.48955
H         -2.40284       -3.50068       -3.27560
H         -3.43551       -5.91757        0.15205
H         -4.13223       -6.31269       -1.42034
H         -2.42619       -6.59896       -1.11732
H         -4.11773       -2.66435       -1.66247
H         -5.07139       -4.13300       -1.62828
H         -4.39251       -3.50095       -0.13027
H          0.52177       -5.34928       -2.14411
H          1.01434       -6.93954       -1.51202
H         -0.47200       -6.79403       -2.45321
C          5.96928        0.44708        0.23927
C          4.42484        1.01616        3.33903
C          4.66578        3.20024        2.10002
C          2.61087        2.73905        3.40704
C          2.58295        1.01196       -3.57829
C          4.67269        1.97891       -2.66182
C          4.37681       -0.52524       -2.74740
H          5.21298        0.54353        2.75789
H          4.87820        1.45268        4.22862
H          3.73538        0.23532        3.65943
H          5.07029        3.71190        2.97297
H          5.50458        2.80314        1.53359
H          4.16126        3.93846        1.47739
H          1.96232        1.99629        3.86923
H          3.07031        3.30843        4.21466
H          1.99227        3.42284        2.82704
H          3.03054        1.14677       -4.56259
H          1.92190        0.14923       -3.64416
H          1.97693        1.89167       -3.36292
H          5.06462        2.02036       -3.67775
H          4.19089        2.93174       -2.44480
H          5.51852        1.87203       -1.98737
H          5.16775       -0.69602       -2.02091
H          4.82025       -0.55690       -3.74227
H          3.66907       -1.35002       -2.66646
H          6.58956        0.24366       -0.63341
H          6.62661        0.67050        1.07944
H          5.36802       -0.43293        0.47140
