171
-217.84414464
P         -1.62295        0.34746       -0.42338
P          1.59421       -0.38864       -0.32319
C         -0.91180        1.24160       -1.80436
C          0.91917       -1.43181       -1.61759
C         -0.09482        0.58058       -2.71447
C          0.51884        1.32863       -3.73790
C          0.25778        2.68536       -3.83441
C         -0.58433        3.31373       -2.94138
C         -1.16090        2.58705       -1.91816
C          1.16124       -2.78274       -1.55525
C          0.59990       -3.63352       -2.48639
C         -0.22061       -3.12114       -3.46853
C         -0.47837       -1.76231       -3.54749
C          0.12055       -0.89047       -2.61831
Cl         1.48950        0.43861        2.85038
Cl        -1.63106       -0.43731        2.84224
C         -1.36822       -1.24680       -4.62288
C          1.43746        0.69090       -4.72082
H         -0.78698        4.36794       -3.03696
H         -1.81043        3.07015       -1.20600
H          1.79311       -3.17554       -0.77542
H          0.79723       -4.69207       -2.43984
H          0.72444        3.25108       -4.62319
H         -0.67265       -3.78134       -4.18943
C         -3.97568       -3.30629       -1.66818
C         -2.92075       -3.45693       -0.77640
C         -2.20992       -2.32046       -0.41234
C         -2.53866       -1.09843       -0.94270
C         -3.57700       -0.96630       -1.83158
C         -4.32709       -2.07398       -2.20768
H         -4.54348       -4.17750       -1.93504
H         -1.39639       -2.37615        0.29012
H         -3.81158        0.01090       -2.22014
C         -4.16343        2.89421        2.34581
C         -2.82949        3.23407        2.15705
C         -2.08824        2.47614        1.26055
C         -2.65735        1.41431        0.60032
C         -3.97497        1.08725        0.80734
C         -4.75942        1.82939        1.68176
H         -4.75484        3.45505        3.04474
H         -1.04417        2.69121        1.10649
H         -4.37822        0.22736        0.30309
C          4.39503       -2.68697        2.40917
C          3.04876       -3.03201        2.38769
C          2.21608       -2.34117        1.51791
C          2.70975       -1.33141        0.72991
C          4.03937       -0.99385        0.77516
C          4.91426       -1.67435        1.61196
H          5.06141       -3.20913        3.06956
H          1.16680       -2.57885        1.46868
H          4.38717       -0.18346        0.16016
C          3.82135        3.28609       -1.72715
C          2.82709        3.43141       -0.76712
C          2.12699        2.29490       -0.38421
C          2.43007        1.07299       -0.93085
C          3.42107        0.94361       -1.87268
C          4.14036        2.05706       -2.29155
H          4.37851        4.14924       -2.03863
H          1.34633        2.35587        0.35418
H          3.63484       -0.03630       -2.26461
Pd        -0.06470        0.01181        1.28498
C         -3.78086       -5.31199        0.66812
C         -2.59760       -4.83996       -0.19519
C         -1.33274       -4.80116        0.68383
C         -2.35931       -5.83874       -1.34317
H         -3.97008       -4.60787        1.47823
H         -4.69224       -5.39392        0.07677
H         -3.57806       -6.28800        1.10864
H         -1.09625       -5.79419        1.06566
H         -0.47411       -4.45113        0.11201
H         -1.46921       -4.14317        1.54175
H         -2.08673       -6.82017       -0.95551
H         -3.25070       -5.96082       -1.95701
H         -1.55270       -5.49589       -1.98998
C         -6.54903       -0.95154       -2.48595
C         -5.52945       -1.89581       -3.14795
C         -6.22801       -3.23747       -3.44255
C         -5.06162       -1.29055       -4.48354
H         -7.42655       -0.81821       -3.11839
H         -6.88093       -1.35547       -1.52980
H         -6.11583        0.03167       -2.30608
H         -5.54359       -3.93974       -3.91824
H         -6.61012       -3.69062       -2.52799
H         -7.07299       -3.09333       -4.11582
H         -5.90647       -1.12288       -5.15138
H         -4.56158       -0.33451       -4.33357
H         -4.36761       -1.96162       -4.98746
C         -1.00790        3.73330        3.79723
C         -2.13655        4.35126        2.94948
C         -3.11536        5.07769        3.89161
C         -1.54763        5.38202        1.97079
H         -1.40865        2.99219        4.48834
H         -0.26935        3.23388        3.17179
H         -0.49217        4.49660        4.37935
H         -3.53620        4.39103        4.62583
H         -2.60741        5.87227        4.43809
H         -3.93328        5.53192        3.33261
H         -0.81120        4.92203        1.31568
H         -2.32979        5.81201        1.34546
H         -1.05613        6.19428        2.50605
C         -6.34074        1.03327        3.45113
C         -6.22127        1.46643        1.97888
C         -6.71123        0.31036        1.08611
C         -7.11946        2.69058        1.72021
H         -6.04847        1.83845        4.12426
H         -7.36460        0.74905        3.69335
H         -5.69502        0.17879        3.65305
H         -6.63305        0.57676        0.03289
H         -6.13158       -0.59609        1.25975
H         -7.75568        0.07678        1.29219
H         -6.85786        3.52225        2.37309
H         -7.01983        3.02941        0.68915
H         -8.16753        2.44854        1.89585
C          2.04421       -5.32193        2.38850
C          2.45916       -4.13619        3.27597
C          1.22699       -3.58925        4.02502
C          3.47750       -4.63117        4.32101
H          1.31545       -5.01298        1.64107
H          2.90685       -5.72999        1.86209
H          1.60037       -6.12030        2.98294
H          0.43239       -3.30435        3.33709
H          0.82031       -4.33698        4.70549
H          1.49247       -2.70852        4.60929
H          3.82204       -3.80993        4.94928
H          3.02940       -5.38185        4.97193
H          4.34332       -5.08843        3.84273
C          6.72937       -0.82211        3.11307
C          6.40552       -1.31870        1.69261
C          6.77927       -0.21016        0.68822
C          7.24802       -2.56714        1.37160
H          7.77928       -0.54281        3.19949
H          6.12537        0.05037        3.36159
H          6.52577       -1.59187        3.85658
H          6.23234        0.70950        0.89553
H          7.84299        0.02062        0.74401
H          6.56143       -0.51989       -0.33376
H          8.31277       -2.33576        1.39659
H          7.06498       -3.36582        2.08931
H          7.00858       -2.94751        0.37871
C          2.33185        4.65360        1.37860
C          2.47150        4.79189       -0.15078
C          1.14205        5.27301       -0.75280
C          3.55780        5.84721       -0.43690
H          1.51909        3.98201        1.64846
H          3.24966        4.25998        1.81473
H          2.12567        5.61913        1.84015
H          0.83201        6.22186       -0.31544
H          1.23635        5.41106       -1.82963
H          0.35285        4.54305       -0.57959
H          3.63578        6.05649       -1.50340
H          3.32383        6.78746        0.06232
H          4.53077        5.51226       -0.07762
C          5.43895        0.53049       -3.86063
C          5.29973        1.95683       -3.29354
C          6.61202        2.32790       -2.57861
C          5.06079        2.92781       -4.46559
H          4.52560        0.21657       -4.36479
H          6.25087        0.48045       -4.58602
H          5.66082       -0.18659       -3.07051
H          6.79447        1.66039       -1.73706
H          7.46119        2.25480       -3.25784
H          6.57740        3.34685       -2.19452
H          4.11832        2.70972       -4.96570
H          5.02611        3.96193       -4.12546
H          5.85872        2.84961       -5.20387
H         -0.80171       -1.03061       -5.52933
H          1.75185       -0.30021       -4.39119
H         -1.87446       -0.33171       -4.31227
H         -2.13364       -1.98060       -4.87662
H          2.33638        1.29242       -4.85516
H          0.95692        0.58801       -5.69466
