171
-217.83934982
P         -1.63510        0.75809        0.18737
P          1.48082       -0.27064       -0.27173
C         -0.81822        1.83696       -1.00982
C          0.60378       -0.93128       -1.70203
C         -0.16685        1.38579       -2.15152
C          0.53223        2.31564       -2.94434
C          0.53092        3.65227       -2.58271
C         -0.12605        4.08276       -1.45018
C         -0.79268        3.16641       -0.65987
C          0.67868       -2.26682       -2.01176
C         -0.01001       -2.76791       -3.09865
C         -0.77707       -1.92185       -3.87279
C         -0.86888       -0.57075       -3.57817
C         -0.14716       -0.06147       -2.48199
Cl         2.10338        1.15944        2.68646
Cl        -0.94212        0.64869        3.44963
C         -1.70813        0.32769       -4.41867
C          1.30534        1.89605       -4.14565
H         -0.10977        5.12464       -1.17497
H         -1.28865        3.48328        0.24588
H          1.27773       -2.92063       -1.40233
H          0.04746       -3.81746       -3.33689
H          1.06666        4.35759       -3.19551
H         -1.31249       -2.31072       -4.72217
C         -2.99198       -3.45478       -0.81323
C         -1.95292       -3.29981        0.09754
C         -1.50674       -2.01112        0.36138
C         -2.08524       -0.92823       -0.25997
C         -3.12022       -1.10288       -1.14531
C         -3.59671       -2.37281       -1.44179
H         -3.35489       -4.44233       -1.02233
H         -0.71422       -1.85410        1.07094
H         -3.58350       -0.23745       -1.58647
C         -5.53682        2.75621        1.33700
C         -4.72186        2.27088        2.35327
C         -3.52255        1.67588        1.99134
C         -3.15451        1.58208        0.67458
C         -3.96674        2.07362       -0.31779
C         -5.18392        2.66648       -0.00425
H         -6.47310        3.21786        1.58844
H         -2.85895        1.28725        2.74230
H         -3.63822        1.99329       -1.34013
C          3.73843       -3.69155        1.72612
C          3.97926       -3.38383        0.39355
C          3.27728       -2.32419       -0.16439
C          2.35302       -1.61921        0.56764
C          2.13214       -1.94280        1.88605
C          2.82820       -2.97822        2.49442
H          4.27425       -4.50030        2.18626
H          3.45090       -2.05405       -1.19118
H          1.42059       -1.37711        2.45640
C          4.57052        2.68238       -1.77688
C          3.78597        3.03849       -0.68746
C          2.85871        2.11414       -0.22636
C          2.71209        0.90046       -0.84867
C          3.47728        0.57604       -1.94236
C          4.43323        1.46183       -2.42604
H          5.31906        3.37203       -2.12056
H          2.25023        2.33071        0.63239
H          3.30675       -0.36647       -2.43205
Pd         0.24927        0.59507        1.54950
C         -1.51607       -4.24439        2.37483
C         -1.34872       -4.48789        0.86330
C          0.14443       -4.62173        0.52144
C         -2.04645       -5.81476        0.50644
H         -1.13613       -5.08712        2.95159
H         -0.98038       -3.35143        2.69275
H         -2.56745       -4.11009        2.62818
H          0.28023       -4.81152       -0.54268
H          0.68620       -3.71368        0.77615
H          0.60027       -5.44613        1.06923
H         -3.10934       -5.77574        0.74420
H         -1.93515       -6.04442       -0.55313
H         -1.61314       -6.64182        1.06884
C         -5.14952       -4.00231       -2.63354
C         -4.82132       -2.52266       -2.35671
C         -4.55468       -1.82723       -3.70315
C         -6.03466       -1.86601       -1.67220
H         -4.30463       -4.50927       -3.09952
H         -5.40550       -4.52796       -1.71387
H         -6.00121       -4.08952       -3.30811
H         -3.68408       -2.26176       -4.19243
H         -5.40668       -1.93665       -4.37394
H         -4.37435       -0.76157       -3.56986
H         -5.85858       -0.80582       -1.49276
H         -6.92881       -1.95749       -2.28850
H         -6.23619       -2.33751       -0.71057
C         -5.18322        0.94020        4.42606
C         -5.09571        2.36146        3.83945
C         -6.45247        3.06161        4.04553
C         -4.01286        3.16279        4.58637
H         -4.22781        0.42215        4.35103
H         -5.46483        0.96890        5.47845
H         -5.92712        0.34877        3.89267
H         -6.69997        3.12049        5.10537
H         -6.43216        4.07879        3.65474
H         -7.25505        2.51576        3.54984
H         -4.25979        3.26159        5.64319
H         -3.04081        2.67603        4.51625
H         -3.91652        4.16378        4.16648
C         -7.48807        2.48482       -0.97952
C         -6.13036        3.20377       -1.08704
C         -5.56704        2.96602       -2.50256
C         -6.32476        4.71737       -0.88539
H         -8.17416        2.82951       -1.75303
H         -7.36354        1.40826       -1.09449
H         -7.95798        2.66589       -0.01362
H         -4.61397        3.47724       -2.63730
H         -5.41951        1.90292       -2.69268
H         -6.25309        3.34414       -3.26036
H         -6.98031        5.13212       -1.65095
H         -6.76788        4.93334        0.08610
H         -5.36904        5.23834       -0.94044
C          6.07895       -3.19764       -0.96178
C          4.97851       -4.15928       -0.47572
C          4.23734       -4.75491       -1.68787
C          5.64163       -5.30975        0.30525
H          5.66154       -2.38904       -1.56030
H          6.60075       -2.75082       -0.11577
H          6.81299       -3.72108       -1.57411
H          3.79968       -3.97394       -2.30871
H          4.91541       -5.33543       -2.31312
H          3.43190       -5.41255       -1.36115
H          6.19768       -4.93230        1.16320
H          4.89737       -6.02224        0.66067
H          6.34263       -5.85325       -0.32816
C          3.97962       -3.18082        4.71141
C          2.63431       -3.32909        3.97684
C          2.13418       -4.77960        4.09686
C          1.60945       -2.39713        4.65479
H          4.72987       -3.85897        4.30667
H          4.35964       -2.16407        4.61367
H          3.87061       -3.40016        5.77337
H          2.85199       -5.48250        3.67567
H          1.97283       -5.05180        5.13975
H          1.19193       -4.90650        3.56591
H          1.93060       -1.35693        4.60323
H          0.63013       -2.47800        4.18517
H          1.49063       -2.65324        5.70733
C          3.74365        5.51725       -1.06695
C          3.96692        4.40917       -0.02133
C          5.39237        4.51012        0.55009
C          2.96131        4.61768        1.12883
H          2.74391        5.44618       -1.49425
H          3.84863        6.50452       -0.61748
H          4.46202        5.44454       -1.88254
H          5.57056        3.71930        1.27852
H          6.14097        4.41602       -0.23575
H          5.54712        5.46801        1.04633
H          3.08824        5.60126        1.58060
H          1.93484        4.54917        0.76917
H          3.10218        3.87482        1.91362
C          5.41915        2.23988       -4.61645
C          5.36761        1.09304       -3.58803
C          4.89171       -0.18123       -4.31427
C          6.77774        0.84395       -3.02474
H          4.42595        2.45810       -5.00657
H          5.81718        3.15412       -4.17877
H          6.05771        1.97546       -5.45922
H          4.91643       -1.04667       -3.65284
H          3.87513       -0.06172       -4.68835
H          5.53474       -0.40401       -5.16561
H          7.16452        1.73520       -2.53132
H          6.76297        0.03705       -2.29227
H          7.47323        0.56899       -3.81750
H         -2.45019       -0.23531       -4.98595
H          1.37041        0.81035       -4.22502
H         -1.09657        0.87803       -5.13409
H         -2.24108        1.05342       -3.80203
H          2.32346        2.28285       -4.09692
H          0.84689        2.27716       -5.05927
