72
-98.09829817
Fe        -0.00256        2.78585       -0.08688
P          1.87368       -0.06797       -0.06012
P         -1.87654       -0.04796        0.02373
C          1.43083        1.57520        0.63211
C          0.41108        1.82657        1.63563
C          0.34969        3.25463        1.89041
C          1.30406        3.89004        0.99904
C          2.01288        2.85575        0.26241
C         -1.41450        1.54090       -0.77005
C         -1.99765        2.84554       -0.49772
C         -1.30617        3.83190       -1.31005
C         -0.29199        3.13877       -2.08289
C         -0.36912        1.72430       -1.76268
C          3.22664       -0.78141        0.99425
C          4.42291        0.07405        0.54232
C          2.93181        0.19998       -1.56819
C          4.34149        0.43469       -0.97152
C         -3.20164       -0.89022       -0.97965
C         -4.49418       -0.67321       -0.16224
C         -2.88070        0.30063        1.55013
C         -4.30462        0.37393        0.96553
H         -0.18970        1.06337        2.12652
H         -0.31801        3.75844        2.59297
H          1.50742        4.96235        0.94451
H          2.80519        3.01282       -0.47201
H         -2.81176        3.04770        0.20111
H          0.27940        0.94181       -2.15554
Cl         1.55706       -3.04369       -0.31524
Cl        -1.54066       -3.06013        0.50924
Pd        -0.01364       -1.46328        0.06108
H          3.37226       -1.82179        0.68090
C          2.93609       -0.71932        2.49508
H          2.55863        1.09813       -2.07438
C          2.90905       -0.99068       -2.52472
H          5.37098       -0.43387        0.77862
H          4.42888        0.99560        1.14299
H          4.66141        1.47450       -1.13458
H          5.06516       -0.17460       -1.53094
H         -1.51331        4.90402       -1.33488
H          0.39762        3.59730       -2.79557
H          3.88738       -0.66327        3.04246
H          3.70558       -0.86210       -3.27097
H         -2.94002       -1.95473       -1.01342
C         -3.29562       -0.35241       -2.40496
H         -2.55989        1.26810        1.95485
C         -2.76387       -0.79051        2.61511
H         -4.82451       -1.62642        0.27537
H         -5.30774       -0.36650       -0.83461
H         -4.49507        1.38143        0.56703
H         -5.04698        0.22488        1.76406
H         -4.24498       -0.67879       -2.85207
H         -2.92141       -1.76344        2.13222
C          2.13147       -1.90905        2.99688
H          1.20512       -2.02923        2.43718
H          2.68942       -2.83967        2.87696
H          1.87143       -1.81513        4.05361
C          1.58194       -1.20241       -3.23227
H          1.29326       -0.32155       -3.80853
H          1.61845       -2.04728       -3.92382
H          0.78497       -1.40875       -2.51902
C         -2.14075       -0.79621       -3.28593
H         -1.18793       -0.47767       -2.86819
H         -2.10324       -1.88390       -3.37199
H         -2.21087       -0.38641       -4.29605
C         -1.45126       -0.78891        3.37801
H         -0.60696       -0.92926        2.70564
H         -1.29911        0.15425        3.90622
H         -1.40891       -1.58920        4.12043
H          2.42060        0.22333        2.71922
H          3.18483       -1.89245       -1.96256
H         -3.35628        0.74303       -2.36606
H         -3.59696       -0.68584        3.32401
