59
-75.81191991
Cl         1.61396        0.73789        2.26879
P          1.59343       -0.04624       -0.86287
P         -1.61889       -0.05367       -0.79726
C          0.58322        0.39481       -2.34013
H          0.32999        1.45697       -2.29422
H          1.18656        0.23549       -3.23941
C         -0.65529       -0.45256       -2.32088
H         -0.39709       -1.51467       -2.30016
H         -1.29340       -0.28244       -3.19406
C          2.47838       -1.63530       -1.24565
H          2.24112       -1.82888       -2.30049
C          3.06498        1.06113       -0.64749
H          3.21790        1.15020        0.43492
C         -2.96501       -1.29414       -0.50832
H         -3.33718       -1.10590        0.50637
C         -2.72831        1.38380       -1.19330
H         -2.23652        1.95429       -1.99062
C          3.97029       -1.27781       -1.11577
H          4.33951       -1.59784       -0.13417
H          4.56439       -1.84593       -1.84738
C          4.20853        0.24676       -1.27607
H          4.27692        0.49896       -2.34338
H          5.17472        0.54347       -0.83996
C         -4.00892       -0.84298       -1.54284
H         -3.76490       -1.31457       -2.50600
H         -5.00631       -1.22540       -1.27511
C         -4.02654        0.70668       -1.70380
H         -4.87831        1.11808       -1.14462
H         -4.21550        0.98043       -2.75240
C          2.01352       -2.81062       -0.38820
H          2.49244       -3.73048       -0.75177
H          0.94031       -2.96125       -0.56223
C          2.87845        2.44451       -1.25847
H          3.84262        2.97181       -1.25200
H          2.61893        2.33351       -2.31919
C         -2.52276       -2.74818       -0.63373
H         -3.41242       -3.38582       -0.73088
H         -1.97476       -2.87798       -1.57491
C         -2.97515        2.27872        0.02010
H         -3.83409        2.93138       -0.19073
H         -3.29119        1.64801        0.86159
C          2.27830       -2.65809        1.10412
H          1.90048       -1.70961        1.48429
H          3.34406       -2.68921        1.33441
H          1.80495       -3.45319        1.68498
C          1.82940        3.27325       -0.53638
H          0.85839        2.77971       -0.55809
H          1.70584        4.26264       -0.98257
H          2.09167        3.41438        0.51386
C         -1.68416       -3.21177        0.54701
H         -0.80929       -2.57694        0.68459
H         -1.33354       -4.23930        0.42681
H         -2.25370       -3.16472        1.47715
C         -1.78154        3.13142        0.41843
H         -2.01659        3.79904        1.25054
H         -0.93890        2.51743        0.73249
H         -1.44329        3.75135       -0.41396
Cl        -1.64489       -0.10938        2.33894
Pd         0.01785        0.07651        0.84579
