75
-122.81759637
P          1.83130       -0.57501        0.04278
C          3.14717       -1.30287       -0.94674
C          2.87473       -1.90948       -2.15123
C          3.89954       -2.48753       -2.87758
C          5.18969       -2.46461       -2.38648
C          5.45616       -1.87139       -1.16865
C          4.42879       -1.29355       -0.44475
H          4.61773       -0.84648        0.51879
H          6.46128       -1.86090       -0.78024
H          5.98916       -2.91393       -2.95274
H          3.69026       -2.95389       -3.82626
H          1.86308       -1.92568       -2.52310
C          1.72809       -1.55719        1.54736
C          1.94434       -2.91391        1.46316
C          1.95192       -3.68307        2.61301
C          1.74721       -3.08623        3.84112
C          1.52668       -1.72568        3.92119
C          1.51506       -0.96165        2.76930
H          1.32555        0.09744        2.81540
H          1.35600       -1.26021        4.87793
H          1.75205       -3.68425        4.73775
H          2.12076       -4.74541        2.54939
H          2.12063       -3.36335        0.49866
C          2.19773        1.14208        0.44627
C          3.34883        1.79703        0.07536
C          3.51204        3.14799        0.34862
C          2.47362        3.83494        0.97641
C          1.30745        3.19590        1.33454
C          1.16564        1.82367        1.07384
O         -0.01826        1.13946        1.39562
C         -1.21319        1.80976        1.08732
C         -1.37359        3.17699        1.36360
C         -2.55804        3.79915        1.03665
C         -3.59575        3.10198        0.41904
C         -3.40959        1.76010        0.11689
C         -2.23895        1.12281        0.45569
P         -1.84708       -0.56904       -0.01784
C         -1.67481       -1.61490        1.43056
C         -1.49408       -2.96688        1.25008
C         -1.44216       -3.80460        2.34983
C         -1.57702       -3.28093        3.62050
C         -1.75802       -1.92314        3.79545
C         -1.80777       -1.08807        2.69457
H         -1.94622       -0.02597        2.81392
H         -1.85691       -1.51355        4.78719
H         -1.53410       -3.93252        4.47790
H         -1.29737       -4.86367        2.21378
H         -1.40688       -3.36114        0.24967
C         -3.17591       -1.27343       -1.00606
C         -2.95591       -1.72396       -2.28728
C         -3.99672       -2.27766       -3.00970
C         -5.25022       -2.38384       -2.44064
C         -5.46425       -1.94208       -1.15022
C         -4.42080       -1.38862       -0.43008
H         -4.56811       -1.05239        0.58455
H         -6.44075       -2.02991       -0.70303
H         -6.06215       -2.81436       -3.00376
H         -3.82884       -2.62358       -4.01640
H         -1.97401       -1.63478       -2.72253
Pd         0.01400       -0.03098       -1.37574
Cl        -1.54027        0.99501       -2.65892
Cl         1.58476        0.81230       -2.76059
H         -4.17490        1.22030       -0.41225
C         -4.84969        3.79777        0.02590
H         -4.77475        4.18178       -0.99220
H         -5.05868        4.63819        0.68901
H         -5.70407        3.12097        0.06859
H         -2.67345        4.84739        1.24888
S         -0.03139        4.06455        2.11011
H          2.57441        4.88757        1.17369
C          4.74443        3.86134       -0.07986
H          4.11653        1.26464       -0.45724
H          4.94945        4.71651        0.56539
H          5.61263        3.20203       -0.04263
H          4.64271        4.22681       -1.10246
