171
-217.84433332
P         -1.63314        0.37519       -0.41380
P          1.61069       -0.39749       -0.31132
C         -0.89367        1.29004       -1.76696
C          0.92402       -1.40309       -1.62996
C         -0.07100        0.64276       -2.68187
C          0.56116        1.40794       -3.68100
C          0.31379        2.76889       -3.74966
C         -0.53267        3.38468       -2.85206
C         -1.12821        2.64024       -1.85272
C          1.15198       -2.75764       -1.59856
C          0.58182       -3.58160       -2.54827
C         -0.23256       -3.03893       -3.51909
C         -0.47574       -1.67605       -3.56760
C          0.13037       -0.83182       -2.61794
Cl         1.46642        0.28562        2.88701
Cl        -1.72759       -0.52169        2.72185
C         -1.35593       -1.12596       -4.63373
C          1.48356        0.78322       -4.66875
H         -0.72442        4.44268       -2.92570
H         -1.78117        3.11341       -1.13698
H          1.78048       -3.17475       -0.82880
H          0.76812       -4.64293       -2.52533
H          0.79442        3.34786       -4.52024
H         -0.69069       -3.67793       -4.25509
C         -3.99294       -3.24223       -1.74893
C         -2.94699       -3.41373       -0.85048
C         -2.23527       -2.28703       -0.45899
C         -2.55364       -1.05397       -0.96971
C         -3.58263       -0.90129       -1.86629
C         -4.33442       -1.99863       -2.26861
H         -4.56194       -4.10595       -2.03671
H         -1.42897       -2.35926        0.25029
H         -3.80789        0.08330       -2.24138
C         -4.17326        2.91685        2.35970
C         -4.78200        1.88731        1.65293
C         -3.99644        1.14424        0.78020
C         -2.66522        1.43800        0.61532
C         -2.08367        2.46643        1.31617
C         -2.82584        3.22254        2.21345
H         -4.76653        3.47727        3.05737
H         -4.41072        0.30977        0.24334
H         -1.03114        2.65779        1.19072
C          4.38723       -2.79673        2.35734
C          3.03812       -3.12965        2.32320
C          2.21284       -2.40544        1.47375
C          2.71643       -1.37662        0.71752
C          4.04863       -1.05145        0.77537
C          4.91627       -1.76431        1.59255
H          5.04806       -3.34459        3.00228
H          1.16144       -2.63179        1.41607
H          4.40424       -0.22586        0.18561
C          3.86415        3.29946       -1.60965
C          2.86360        3.42614       -0.65352
C          2.15475        2.28416       -0.30439
C          2.45617        1.07446       -0.87854
C          3.45358        0.96323       -1.81581
C          4.18151        2.08300       -2.20161
H          4.42758        4.16727       -1.89591
H          1.36830        2.33107        0.42887
H          3.66566       -0.00785       -2.23006
Pd        -0.06838       -0.02186        1.27980
C         -2.39749       -5.79003       -1.45242
C         -2.63564       -4.80799       -0.29004
C         -3.82654       -5.28590        0.55936
C         -1.37516       -4.79127        0.59602
H         -1.58592       -5.44166       -2.09002
H         -2.13218       -6.77892       -1.07888
H         -3.28662       -5.89770       -2.07219
H         -3.63255       -6.27013        0.98531
H         -4.01549       -4.59347        1.37956
H         -4.73520       -5.35219       -0.03811
H         -1.14551       -5.79212        0.96125
H         -0.51195       -4.43523        0.03492
H         -1.51284       -4.14811        1.46491
C         -5.03876       -1.19414       -4.54615
C         -5.52652       -1.79891       -3.21771
C         -6.53856       -0.84342       -2.56016
C         -6.24190       -3.12903       -3.52411
H         -4.35148       -1.87353       -5.04821
H         -5.87551       -1.00956       -5.21970
H         -4.52492       -0.24700       -4.38653
H         -7.41032       -0.69799       -3.19786
H         -6.88147       -1.24508       -1.60694
H         -6.09464        0.13412       -2.37588
H         -7.08242       -2.96892       -4.19934
H         -5.56547       -3.83718       -4.00247
H         -6.63308       -3.58323       -2.61390
C         -7.11418        2.82244        1.65556
C         -6.26205        1.56293        1.90051
C         -6.43516        1.09062        3.35519
C         -6.76360        0.45046        0.96022
H         -8.17384        2.60865        1.79444
H         -6.84595        3.62514        2.34116
H         -6.97461        3.18916        0.63877
H         -6.13561        1.86562        4.05982
H         -7.47380        0.83310        3.56178
H         -5.82286        0.20982        3.54783
H         -7.82024        0.24500        1.13113
H         -6.64796        0.74551       -0.08188
H         -6.21801       -0.47910        1.12153
C         -1.01916        3.64167        3.89349
C         -2.12349        4.30357        3.04675
C         -3.10215        5.02254        3.99476
C         -1.50096        5.34877        2.10501
H         -0.27908        3.14763        3.26559
H         -0.49976        4.37888        4.50523
H         -1.44354        2.88846        4.55687
H         -3.90056        5.51160        3.43694
H         -3.54998        4.32324        4.70054
H         -2.58647        5.78885        4.57343
H         -2.26585        5.81181        1.48192
H         -1.00034        6.13564        2.66895
H         -0.76552        4.89167        1.44675
C          1.20739       -3.72306        3.93774
C          2.43755       -4.25607        3.17544
C          3.44902       -4.79077        4.20745
C          2.01607       -5.41061        2.25064
H          1.47804       -2.86322        4.55007
H          0.41720       -3.41042        3.25683
H          0.79270       -4.48849        4.59323
H          4.31271       -5.23980        3.71767
H          3.79800       -3.99189        4.86156
H          2.99329       -5.55760        4.83377
H          1.56351       -6.22306        2.81885
H          1.29263       -5.07294        1.51047
H          2.87724       -5.80960        1.71496
C          6.79464       -0.28746        0.71713
C          6.41027       -1.42352        1.68618
C          7.24313       -2.66819        1.32768
C          6.73592       -0.97382        3.12174
H          6.25488        0.62977        0.95212
H          7.86011       -0.06721        0.78147
H          6.57596       -0.56356       -0.31425
H          7.00236       -3.01546        0.32306
H          8.30968       -2.44638        1.36141
H          7.05236       -3.48731        2.01989
H          6.52427       -1.76431        3.84085
H          7.78807       -0.70654        3.21830
H          6.13915       -0.10412        3.39615
C          2.35382        4.59572        1.51830
C          2.51126        4.77269       -0.00541
C          1.19220        5.27980       -0.60887
C          3.60876        5.82650       -0.25174
H          3.26393        4.18407        1.95391
H          2.14962        5.55048        2.00258
H          1.53332        3.92351        1.76201
H          0.88543        6.22012       -0.15123
H          1.29891        5.44380       -1.68090
H          0.39525        4.55249       -0.46191
H          3.37746        6.75450        0.27111
H          4.57540        5.47364        0.10750
H          3.69901        6.06456       -1.31119
C          5.12026        2.99783       -4.34928
C          5.34825        2.00139       -3.19667
C          5.48852        0.58717       -3.79311
C          6.65599        2.35375       -2.46406
H          5.92417        2.93448       -5.08248
H          4.18166        2.79189       -4.86172
H          5.08395        4.02434       -3.98699
H          5.70153       -0.14735       -3.01670
H          4.57872        0.28686       -4.31180
H          6.30656        0.55038       -4.51239
H          6.62118        3.36451       -2.05895
H          6.83013        1.66828       -1.63529
H          7.51019        2.29249       -3.13812
H         -0.78214       -0.88596       -5.52954
H          1.79078       -0.21512       -4.35449
H         -1.86039       -0.21798       -4.30021
H         -2.12249       -1.84871       -4.91408
H          2.38637        1.38245       -4.78631
H          1.00926        0.69980       -5.64750
