45
-71.81641550
C          0.40647        0.44701        2.52273
P          0.97894        0.56366        0.79365
P         -1.59166        0.39418       -1.00878
C         -2.33508        0.16838       -2.65850
Cl         1.65533       -2.46217        0.39208
H          0.82239        1.26236        3.10766
H         -1.58324        0.32533       -3.42667
Cl        -1.09231       -2.76882       -1.52367
C          0.34921        2.05586       -0.00063
C         -0.76296        1.98381       -0.81027
C         -1.25946        3.12286       -1.41006
C         -0.62717        4.33685       -1.20589
C          0.49257        4.40746       -0.39946
C          0.98213        3.26399        0.20702
H         -2.14077        3.05792       -2.02719
H         -1.01106        5.22816       -1.67430
H          0.98433        5.35300       -0.24045
H          1.85409        3.30291        0.84008
Pd         0.01235       -1.16412       -0.41754
H         -3.14610        0.87628       -2.80315
H          0.71940       -0.49928        2.95473
H         -2.72720       -0.84054       -2.74984
C         -4.53129       -0.29098        2.38756
C         -4.16177       -1.34107        1.56983
C         -3.27437       -1.12382        0.53211
C         -2.77068        0.13796        0.31642
C         -3.12637        1.18569        1.13394
C         -4.01336        0.97172        2.17352
H         -5.22256       -0.45817        3.19738
H         -4.55776       -2.32825        1.74267
H         -2.94427       -1.93434       -0.09824
H         -2.70747        2.16322        0.95756
H         -4.29839        1.78913        2.81530
C          5.48982        0.30338        0.26205
C          4.66852        0.56107       -0.81756
C          3.29921        0.64334       -0.63649
C          2.76308        0.47072        0.61943
C          3.57728        0.20991        1.69791
C          4.94652        0.12712        1.51937
H          6.55643        0.23622        0.12249
H          5.09122        0.69451       -1.79977
H          2.64268        0.83969       -1.47000
H          3.14201        0.06547        2.67323
H          5.58767       -0.07907        2.36065
H         -0.67770        0.50648        2.55624
