58
-89.86627388
P          1.67574        0.27885        0.78130
C          2.90528        1.50251        0.32381
C          4.20626        1.11941        0.09120
C          5.14653        2.06632       -0.27286
C          4.77457        3.39006       -0.40220
C          3.46713        3.76901       -0.16882
C          2.52879        2.81982        0.19595
H          1.50212        3.09885        0.37470
H          4.47896        0.08102        0.18926
C          2.31316       -1.38413        0.52488
C          2.42891       -1.84211       -0.76779
C          2.87807       -3.12614       -1.01161
C          3.21364       -3.94624        0.04678
C          3.10733       -3.48189        1.34292
C          2.65789       -2.19586        1.58231
H          2.57905       -1.82601        2.59123
H          2.16271       -1.18590       -1.58062
C          1.25966        0.58115        2.54537
C          0.13042       -0.28403        3.08304
C         -1.25019        0.20309        2.68375
P         -1.67194        0.03397        0.90105
C         -1.92911       -1.69806        0.48162
C         -0.84524       -2.54431        0.52272
C         -0.99193       -3.87769        0.18869
C         -2.22974       -4.35684       -0.19029
C         -3.31424       -3.50346       -0.24444
C         -3.16096       -2.16996        0.08896
H         -3.99544       -1.49237        0.02501
H          0.12431       -2.14916        0.76987
C         -3.16079        1.02070        0.66643
C         -4.31277        0.65640        1.32777
C         -5.46085        1.41497        1.18392
C         -5.44543        2.54167        0.38620
C         -4.28451        2.91425       -0.26142
C         -3.13874        2.15367       -0.11503
H         -2.22706        2.43731       -0.61534
H         -4.30820       -0.21556        1.96282
Pd        -0.06930        0.48975       -0.72602
Cl         1.41811        0.82615       -2.38034
Cl        -1.76454        0.44189       -2.20615
H         -2.03128       -0.33549        3.22593
H         -1.36737        1.25961        2.93316
H          0.26713       -1.32304        2.75992
H          0.19287       -0.31766        4.18202
H          2.18778        0.42049        3.09938
H          1.01607        1.64020        2.64833
H          6.16581        1.77000       -0.45866
H          3.17615        4.80121       -0.27424
H          2.96303       -3.48465       -2.02423
H          3.37398       -4.12108        2.16857
H         -0.13829       -4.53489        0.21304
H         -4.27823       -3.87401       -0.55224
H         -6.36443        1.12739        1.69595
H         -4.27025        3.79512       -0.88204
H          5.50551        4.12850       -0.68883
H          3.56244       -4.94901       -0.13900
H         -2.34754       -5.39529       -0.45380
H         -6.33944        3.13272        0.27151
