58
-89.85886027
P          1.64960       -0.24323        0.73291
C          2.35272        1.35544        1.14086
C          2.84369        1.61802        2.39944
C          3.38395        2.86076        2.67783
C          3.43617        3.82670        1.69172
C          2.95925        3.55167        0.42521
C          2.42061        2.30830        0.15016
H          2.07878        2.05832       -0.84167
H          2.81466        0.84881        3.15409
C          2.89131       -1.34249        0.04916
C          2.51059       -2.58301       -0.40897
C          3.45615       -3.43132       -0.95738
C          4.77434       -3.02837       -1.04412
C          5.14978       -1.78063       -0.58624
C          4.20240       -0.93452       -0.03875
H          4.47709        0.04628        0.31435
H          1.47517       -2.87899       -0.34436
C          0.79967       -1.07750        2.13517
C         -0.04488       -0.15123        2.99805
C         -0.86838        0.85827        2.21180
P         -1.67230        0.16979        0.70926
C         -2.41804       -1.44526        0.93368
C         -2.49278       -2.27939       -0.15857
C         -3.06441       -3.53197       -0.03152
C         -3.56688       -3.93485        1.19009
C         -3.50747       -3.08669        2.27884
C         -2.93441       -1.83435        2.14852
H         -2.89983       -1.15515        2.98479
H         -2.12817       -1.92880       -1.11136
C         -2.86236        1.34856        0.06834
C         -2.43959        2.61361       -0.27025
C         -3.34535        3.52444       -0.78454
C         -4.66612        3.15919       -0.95700
C         -5.08379        1.88696       -0.61877
C         -4.17615        0.97833       -0.10525
H         -4.48389       -0.02156        0.15488
H         -1.40239        2.88037       -0.14001
Pd         0.00144        0.01553       -0.89379
Cl         1.70863        0.11441       -2.35236
Cl        -1.58397        0.11494       -2.47691
H         -1.64668        1.31280        2.82934
H         -0.23833        1.67520        1.85312
H         -0.70700       -0.75788        3.63321
H          0.60007        0.38729        3.70789
H          0.17917       -1.85118        1.67748
H          1.55938       -1.59584        2.72501
H          3.76625        3.07311        3.66276
H          3.01252        4.29955       -0.34876
H          3.16233       -4.40246       -1.32040
H          6.17727       -1.46408       -0.65909
H         -3.12243       -4.18737       -0.88491
H         -3.90972       -3.39829        3.22880
H         -3.01851        4.51520       -1.05433
H         -6.11313        1.60023       -0.75843
H          3.85771        4.79462        1.90892
H          5.51089       -3.68750       -1.47394
H         -4.01365       -4.91039        1.29218
H         -5.37160        3.86725       -1.36031
