171
-217.83648122
P         -1.49152        0.25144       -0.40435
P          1.68177       -0.71425        0.42446
C         -0.44432        1.06590       -1.62607
C          1.05160       -1.70434       -0.95190
C          0.46700        0.29428       -2.33685
C          1.31408        0.91962       -3.27178
C          1.17844        2.27968       -3.49627
C          0.25630        3.02746       -2.79447
C         -0.54799        2.41696       -1.85231
C          1.04359       -3.06050       -0.72311
C          0.51541       -3.92385       -1.66352
C         -0.01850       -3.41589       -2.82810
C         -0.03669       -2.05293       -3.07104
C          0.51615       -1.17442       -2.12055
Cl         0.59318       -1.06030        3.41728
Cl        -2.34628       -1.50053        2.33863
C         -0.65349       -1.55149       -4.32998
C          2.33089        0.13820       -4.02818
H          0.16731        4.08558       -2.97850
H         -1.25211        3.00074       -1.28525
H          1.44352       -3.44099        0.20534
H          0.51280       -4.98623       -1.48226
H          1.80317        2.75277       -4.23454
H         -0.43987       -4.08136       -3.56265
C         -4.21013       -2.63259       -2.59220
C         -3.58046       -3.06555       -1.43212
C         -2.76983       -2.16220       -0.75861
C         -2.58091       -0.89461       -1.24738
C         -3.19411       -0.48941       -2.40745
C         -4.03165       -1.35315       -3.10369
H         -4.87005       -3.30863       -3.10365
H         -2.29285       -2.43543        0.16469
H         -2.99867        0.50235       -2.77607
C         -4.17415        3.33394        1.61383
C         -3.38914        2.52204        2.42154
C         -2.56468        1.59261        1.80245
C         -2.53379        1.47088        0.43329
C         -3.33893        2.26813       -0.34314
C         -4.16318        3.22797        0.22870
H         -4.81929        4.05264        2.08297
H         -1.95620        0.94280        2.40134
H         -3.32743        2.14416       -1.41215
C          5.55044       -2.64977        1.77042
C          4.64365       -2.25526        2.74622
C          3.45146       -1.68072        2.32732
C          3.18493       -1.51866        0.99198
C          4.08913       -1.92258        0.03980
C          5.29859       -2.49581        0.41297
H          6.48130       -3.09054        2.07689
H          2.70908       -1.36687        3.03703
H          3.83859       -1.78930       -0.99909
C          2.85852        3.61475       -0.22893
C          3.63768        2.60154       -0.77033
C          3.22126        1.29170       -0.57234
C          2.08465        1.01826        0.14831
C          1.33657        2.03492        0.69675
C          1.70566        3.36112        0.50366
H          3.17028        4.63362       -0.36696
H          3.79227        0.47013       -0.96707
H          0.46129        1.78966        1.27037
Pd        -0.42342       -0.76824        1.43375
C         -5.28753       -4.69107       -0.58242
C         -3.79933       -4.49664       -0.92295
C         -2.96464       -4.78195        0.34179
C         -3.37863       -5.49614       -2.01615
H         -5.47278       -5.69499       -0.20085
H         -5.60377       -3.97684        0.17760
H         -5.91619       -4.54583       -1.46020
H         -1.90060       -4.64877        0.14726
H         -3.25114       -4.12094        1.15944
H         -3.11290       -5.80710        0.68050
H         -3.97215       -5.36896       -2.92063
H         -2.33089       -5.35701       -2.28091
H         -3.50654       -6.52344       -1.67548
C         -4.63877       -1.94744       -5.48006
C         -4.79911       -0.90513       -4.35630
C         -4.28318        0.44962       -4.88177
C         -6.28804       -0.76076       -3.99575
H         -5.15683       -1.62562       -6.38338
H         -3.58846       -2.09009       -5.73084
H         -5.05062       -2.91380       -5.19304
H         -4.80348        0.73305       -5.79657
H         -4.44696        1.24447       -4.15477
H         -3.21797        0.40181       -5.10695
H         -6.70054       -1.70855       -3.65093
H         -6.42197       -0.02894       -3.19921
H         -6.86971       -0.43367       -4.85741
C         -2.48834        1.68534        4.65277
C         -3.49062        2.62460        3.95101
C         -4.91403        2.22818        4.38256
C         -3.19661        4.06802        4.39943
H         -2.55919        1.78378        5.73575
H         -2.68596        0.64254        4.40546
H         -1.46316        1.91906        4.36669
H         -5.14347        1.21263        4.06035
H         -5.02034        2.27131        5.46633
H         -5.65808        2.89368        3.94616
H         -2.19113        4.36678        4.10644
H         -3.89919        4.77395        3.95860
H         -3.26971        4.16036        5.48293
C         -5.84227        5.13854        0.12445
C         -5.01848        4.11781       -0.68350
C         -5.98732        3.23313       -1.49011
C         -4.09502        4.88848       -1.64639
H         -6.53047        4.63717        0.80470
H         -5.19341        5.79224        0.70717
H         -6.43541        5.76813       -0.53873
H         -6.63472        2.66416       -0.82318
H         -6.61905        3.83778       -2.14055
H         -5.44762        2.52341       -2.11578
H         -3.53454        4.20930       -2.28781
H         -4.67019        5.55406       -2.28975
H         -3.37725        5.49191       -1.09076
C          5.20354       -3.95695        4.50147
C          4.97745       -2.45809        4.23099
C          3.83563       -1.96563        5.14223
C          6.25301       -1.66836        4.57704
H          4.31605       -4.53270        4.23952
H          6.03781       -4.34395        3.91762
H          5.42285       -4.13465        5.55415
H          4.08440       -2.11918        6.19212
H          3.65075       -0.90120        4.99957
H          2.91113       -2.50600        4.93996
H          7.10474       -2.01612        3.99362
H          6.11622       -0.60721        4.36955
H          6.50488       -1.77659        5.63186
C          7.64851       -2.15463       -0.39084
C          6.34402       -2.94008       -0.61948
C          5.86477       -2.67936       -2.06156
C          6.60871       -4.44819       -0.45879
H          8.05712       -2.34542        0.60080
H          8.40583       -2.43430       -1.12301
H          7.47284       -1.08271       -0.47945
H          5.68087       -1.61825       -2.22862
H          6.61609       -3.00056       -2.78283
H          4.94713       -3.22719       -2.27537
H          7.33436       -4.79740       -1.19318
H          6.99974       -4.67866        0.53150
H          5.68893       -5.01654       -0.59597
C          4.59554        3.79049       -2.76156
C          4.93198        2.94294       -1.52228
C          5.67357        1.67188       -1.98214
C          5.86616        3.73588       -0.58916
H          4.08404        4.71160       -2.48455
H          5.49979        4.06033       -3.30684
H          3.94709        3.23805       -3.43979
H          5.94203        1.04622       -1.13109
H          5.06038        1.08324       -2.66348
H          6.59393        1.92862       -2.50641
H          6.09098        3.16044        0.30871
H          6.80805        3.96830       -1.08582
H          5.41291        4.67663       -0.27914
C          0.57049        5.55719        0.01724
C          0.92561        4.53511        1.11419
C          1.79843        5.20956        2.18741
C         -0.38514        4.06854        1.76995
H          1.46268        5.96358       -0.45682
H         -0.04085        5.09539       -0.75654
H          0.00702        6.39246        0.43283
H          2.06500        4.49794        2.96867
H          2.72207        5.59599        1.75773
H          1.27118        6.04174        2.65359
H         -0.93994        4.91736        2.16863
H         -1.02491        3.57084        1.04351
H         -0.19294        3.38111        2.59305
H         -0.01085       -1.75475       -5.18772
H          1.92225       -0.22195       -4.97309
H         -0.83370       -0.47669       -4.28890
H         -1.61274       -2.03887       -4.50690
H          2.67006       -0.72599       -3.45474
H          3.20686        0.74781       -4.25427
