111
-148.55789113
P         -2.41487        2.28155        0.61992
P          0.04219        0.29822        0.40099
C         -1.43616        1.90541        2.09359
C         -0.37304        1.03622        1.99320
C         -2.73740        4.09628        0.47294
C         -1.88859        4.71068       -0.61872
C         -1.75617        2.46813        3.31233
H         -2.59307        3.14379        3.38327
C         -1.00589        2.15439        4.43258
H         -1.25393        2.59278        5.38543
C          0.05653        1.27658        4.33153
H          0.63850        1.02928        5.20407
C          0.37187        0.71278        3.10807
H          1.19430        0.02098        3.01282
Pd        -1.42304        1.20055       -1.15925
Cl        -3.00835        2.09885       -2.46817
Cl        -0.41870        0.01175       -2.77164
C         -4.25496        4.15624        0.21794
C         -4.15172        1.64614        0.72035
H         -2.08035        5.78160       -0.71887
H         -0.82322        4.57300       -0.41800
H         -2.10245        4.24571       -1.58263
H         -4.42886        4.17292       -0.86685
H         -4.67129        5.10127        0.59877
H         -4.34655        1.15071       -0.24016
C         -4.98882        2.93372        0.83909
C         -4.32426        0.67635        1.87047
H         -2.49424        4.53604        1.44885
H         -5.18927        3.12879        1.90151
H         -5.97643        2.79166        0.37469
H         -3.63586       -0.16725        1.78671
H         -4.12123        1.16599        2.82433
H         -5.34226        0.28201        1.91177
C         -1.01797       -4.12796        0.58155
C         -1.99296       -3.17606        0.18824
C         -1.63538       -1.83859        0.17650
C         -0.34967       -1.44723        0.44339
C          0.62153       -2.37098        0.72842
C          0.32808       -3.72417        0.77444
O         -1.39552       -5.47816        0.81002
C         -3.42100       -3.56828       -0.22382
H         -2.36505       -1.08056       -0.04740
H          1.61843       -2.01563        0.92304
C          1.45644       -4.72749        1.06232
C          4.42216        0.96552       -0.68159
C          3.61111        0.12863       -1.49299
C          2.29094       -0.06143       -1.12060
C          1.75121        0.59974       -0.04816
C          2.49406        1.51663        0.65062
C          3.82206        1.75357        0.33608
O          5.83263        0.95120       -0.83264
C          4.09820       -0.54920       -2.78517
H          1.65878       -0.72918       -1.68033
H          2.02533        2.04670        1.46163
C          4.55953        2.86278        1.10472
C         -4.32878       -3.57969        1.01509
C         -3.99122       -2.55333       -1.24221
C         -3.43784       -4.94696       -0.90851
C          1.55496       -4.95948        2.57759
C          1.20975       -6.06187        0.33501
C          2.81377       -4.18704        0.55855
C         -1.83245       -5.74405        2.13686
H         -4.34515       -2.59954        1.49047
H         -5.35199       -3.84097        0.74631
H         -3.98165       -4.29882        1.75279
H         -4.17397       -1.58188       -0.78548
H         -3.30557       -2.41543       -2.07791
H         -4.94279       -2.90062       -1.64380
H         -2.76601       -4.95678       -1.76616
H         -3.11984       -5.73236       -0.22742
H         -4.43862       -5.19893       -1.25833
H          0.62634       -5.36054        2.97624
H          2.35397       -5.66167        2.81418
H          1.76192       -4.02437        3.09756
H          0.30924       -6.55122        0.69757
H          1.09327       -5.89890       -0.73592
H          2.04142       -6.74980        0.48525
H          2.74988       -3.90682       -0.49180
H          3.14099       -3.31838        1.12797
H          3.59175       -4.94402        0.65526
H         -1.79699       -4.83528        2.73899
H         -2.85212       -6.12824        2.11597
H         -1.19319       -6.50352        2.58665
C          6.45552       -0.05376       -0.05027
C          5.45865       -0.00779       -3.25713
C          4.20139       -2.06623       -2.55987
C          3.08427       -0.27301       -3.91745
C          5.87531        3.27220        0.42015
C          3.67045        4.12472        1.16483
C          4.85258        2.38409        2.53604
H          5.42774        1.07689       -3.35401
H          6.24802       -0.25715       -2.55204
H          5.73523       -0.42829       -4.22369
H          3.23048       -2.48562       -2.29973
H          4.55264       -2.57094       -3.45946
H          4.89357       -2.29740       -1.75197
H          2.11287       -0.71795       -3.70919
H          2.93962        0.79864       -4.05035
H          3.43484       -0.68561       -4.86302
H          6.59445        2.45643        0.42967
H          5.69807        3.54899       -0.61854
H          6.33382        4.12182        0.92556
H          4.20150        4.95189        1.63523
H          3.38047        4.43836        0.16238
H          2.76232        3.95399        1.74054
H          3.93105        2.12442        3.05629
H          5.35528        3.16122        3.11121
H          5.49163        1.50307        2.53232
H          7.53055       -0.03516       -0.23054
H          6.26498        0.12496        1.00681
H          6.06154       -1.03337       -0.31758
