64
-97.20771169
Cl        -1.54074       -1.64789       -2.54253
Cl         1.56149       -1.49318       -2.91459
P          1.92310       -0.61587        0.26512
C          2.17044       -2.27427        1.05118
C          3.69033       -0.18543       -0.11064
P         -1.25639       -0.13201        0.43949
C          1.27430        0.62321        1.43985
C         -0.15091        0.86663        1.50558
C         -0.36900        2.00594        2.38612
C          0.92608        2.45784        2.86533
C          1.94508        1.60306        2.28076
H         -1.33173        2.45814        2.62855
H          1.10264        3.29212        3.54798
Pd         0.16672       -1.00509       -1.22875
H          3.02353        1.68389        2.43191
C         -4.85023        2.36649       -0.82805
C         -4.48335        2.30046        0.50156
C         -3.40122        1.52624        0.88065
C         -2.68892        0.83019       -0.06949
C         -3.07058        0.87373       -1.39116
C         -4.14811        1.64875       -1.77563
H         -5.69222        2.97036       -1.12500
H         -5.03913        2.84963        1.24379
H         -3.11877        1.44869        1.91782
H         -2.54073        0.27499       -2.11246
H         -4.44377        1.68473       -2.81137
C         -2.70299       -3.86258        2.58793
C         -2.34429       -2.74487        3.31649
C         -1.90869       -1.60641        2.66206
C         -1.83315       -1.59818        1.28854
C         -2.19445       -2.70597        0.55853
C         -2.63044       -3.84526        1.20860
H         -3.04239       -4.74990        3.09707
H         -2.40267       -2.75862        4.39247
H         -1.62212       -0.72536        3.21415
H         -2.13180       -2.66819       -0.51734
H         -2.91266       -4.71582        0.63962
C          3.99214       -0.22508       -1.59217
H          3.85942        0.82402        0.28675
C          4.47942       -1.23635        0.69497
H          4.72327       -0.83939        1.69131
C          3.67241       -2.55312        0.84919
H          5.44580       -1.42795        0.20621
C          1.75161       -2.23264        2.50472
H          1.55407       -2.99127        0.49163
H          4.05405       -3.14607        1.69286
H          3.82073       -3.17774       -0.04372
H          2.33749       -1.49097        3.05135
H          0.69982       -1.95872        2.60720
H          1.89777       -3.19896        2.99313
H          3.80414       -1.22229       -1.99290
H          3.36925        0.47533       -2.15080
H          5.03701        0.02003       -1.79489
Fe         0.84469        2.48669        0.81327
C          2.11109        3.15071       -0.65520
C          1.41179        4.27613       -0.05908
C         -0.01316        4.05853       -0.23808
C         -0.19045        2.81181       -0.95839
C          1.12079        2.25150       -1.21644
H          3.19510        3.02930       -0.71455
H          1.87515        5.13557        0.43042
H         -0.81193        4.72685        0.09080
H         -1.14391        2.38178       -1.26514
H          1.32472        1.34494       -1.78888
