64
-97.20987547
Cl        -1.52657       -1.43589       -2.58418
Cl         1.50892       -2.42500       -2.40253
P          1.95386       -0.61492        0.24629
C          2.31435       -2.22758        1.07603
C          3.65248       -0.16180       -0.32804
P         -1.25299       -0.06255        0.39401
C          1.30821        0.65865        1.38623
C         -0.11945        0.88675        1.47716
C         -0.33098        2.01352        2.37501
C          0.97069        2.47073        2.83232
C          1.98741        1.62036        2.23833
H         -1.29340        2.45982        2.63077
H          1.15218        3.29804        3.52199
Pd         0.17890       -1.10600       -1.16622
H          3.06720        1.70069        2.37652
C         -4.71349        2.63251       -0.82568
C         -4.41694        2.43948        0.50915
C         -3.37918        1.59857        0.87022
C         -2.64174        0.96314       -0.10315
C         -2.95184        1.13514       -1.43272
C         -3.98592        1.97607       -1.79833
H         -5.52104        3.28807       -1.10837
H         -4.99231        2.94213        1.26920
H         -3.14526        1.42800        1.90885
H         -2.39951        0.58842       -2.17775
H         -4.22655        2.11289       -2.83985
C         -2.79384       -3.79426        2.47494
C         -2.28806       -2.74874        3.22327
C         -1.82336       -1.60983        2.59010
C         -1.86848       -1.52836        1.21777
C         -2.37086       -2.56597        0.46806
C         -2.83647       -3.70548        1.09705
H         -3.15570       -4.68202        2.96757
H         -2.25478       -2.81912        4.29810
H         -1.42456       -0.78413        3.15768
H         -2.37868       -2.47967       -0.60688
H         -3.22780       -4.52195        0.51268
C          3.76774       -0.27977       -1.83269
H          3.83531        0.87075       -0.00205
C          4.55044       -1.15522        0.43608
H          4.89119       -0.70312        1.37913
C          3.79847       -2.47982        0.74218
H          5.46216       -1.35190       -0.14676
C          2.02688       -2.12685        2.55842
H          1.66815       -2.98257        0.60754
H          4.27743       -3.01452        1.57508
H          3.87700       -3.15113       -0.12544
H          2.63858       -1.34616        3.01509
H          0.98050       -1.87374        2.74352
H          2.24400       -3.06512        3.07447
H          3.01385        0.32290       -2.34336
H          4.75240        0.03439       -2.18657
H          3.62119       -1.31454       -2.14620
Fe         0.82160        2.51880        0.77681
C          1.72470        4.07039       -0.23862
C          0.33268        4.37965        0.03920
C         -0.49345        3.36208       -0.58438
C          0.38970        2.39609       -1.20944
C          1.75770        2.83374       -0.99993
H          2.59031        4.66190        0.06795
H         -0.03240        5.25312        0.58417
H         -1.58408        3.32429       -0.57523
H          0.07337        1.53722       -1.80445
H          2.65434        2.36584       -1.41007
