111
-148.54901960
P         -2.41594        2.33999        0.61983
P          0.05901        0.36689        0.48646
C         -1.44537        2.01083        2.11297
C         -0.38055        1.13901        2.05526
C         -2.67458        4.16047        0.41821
C         -2.18176        4.62967       -0.93288
C         -1.77536        2.61803        3.30777
H         -2.59631        3.31557        3.34131
C         -1.04957        2.32989        4.45060
H         -1.30765        2.80202        5.38447
C         -0.00139        1.43145        4.39693
H          0.55652        1.19758        5.28870
C          0.33191        0.83143        3.19583
H          1.13460        0.11257        3.14298
Pd        -1.56662        0.98793       -1.05428
Cl        -3.07031        1.90288       -2.44548
Cl        -0.79159       -0.50296       -2.54350
C         -4.19383        4.32838        0.62917
C         -4.17699        1.76561        0.71528
H         -2.30410        5.70885       -1.05246
H         -1.12536        4.38974       -1.07605
H         -2.74052        4.14500       -1.73482
H         -4.55981        5.15986        0.00939
H         -4.39730        4.62372        1.66895
H         -4.28620        0.97057       -0.03505
C         -4.97159        3.02209        0.30496
C         -4.52430        1.23858        2.09129
H         -2.10620        4.64812        1.22204
H         -5.95074        3.01831        0.80572
H         -5.18909        2.98848       -0.77282
H         -3.84874        0.43487        2.39239
H         -4.44823        2.02978        2.83846
H         -5.54577        0.85252        2.12625
C         -0.80231       -4.09236        0.75265
C         -1.85083       -3.14597        0.90626
C         -1.52894       -1.79944        0.86073
C         -0.25086       -1.38918        0.58614
C          0.73880       -2.29591        0.31310
C          0.48838       -3.65716        0.34883
O         -1.02461       -5.45681        1.07089
C         -3.33144       -3.52373        1.08097
H         -2.28199       -1.04908        1.03509
H          1.71896       -1.92638        0.06610
C          1.61954       -4.60891       -0.07584
C          4.34295        1.02437       -0.93642
C          3.33088        0.63969       -1.85156
C          2.04947        0.45392       -1.36419
C          1.73389        0.71861       -0.05730
C          2.68527        1.20807        0.80016
C          3.99215        1.40255        0.38479
O          5.70825        0.99108       -1.32637
C          3.59953        0.39864       -3.34540
H          1.26879        0.07971       -2.00257
H          2.39660        1.42808        1.81130
C          5.01977        1.97026        1.37633
C         -4.19420       -2.66175        0.13171
C         -3.60420       -4.99519        0.72435
C         -3.76111       -3.25696        2.53273
C          2.66800       -4.69167        1.04540
C          1.09934       -6.01943       -0.40238
C          2.29490       -4.06785       -1.35634
C         -0.78423       -5.75005        2.43686
H         -3.84902       -2.76020       -0.89712
H         -5.23872       -2.96996        0.16762
H         -4.15941       -1.60705        0.39823
H         -3.24294       -5.22022       -0.27852
H         -3.10440       -5.66785        1.41735
H         -4.67044       -5.21737        0.76033
H         -3.18915       -3.86559        3.23048
H         -3.60592       -2.21194        2.79897
H         -4.81690       -3.48631        2.67460
H          3.07464       -3.70610        1.27060
H          2.23522       -5.08966        1.96105
H          3.49603       -5.33872        0.75698
H          0.30705       -5.97297       -1.14871
H          1.89674       -6.65258       -0.79072
H          0.69545       -6.50487        0.48303
H          2.81494       -3.12919       -1.17282
H          3.03131       -4.77537       -1.73655
H          1.55560       -3.89810       -2.13863
H         -1.42840       -5.14113        3.06907
H         -0.99153       -6.80457        2.61990
H          0.25397       -5.53906        2.68726
C          6.33094       -0.27383       -1.13911
C          4.76262        1.27120       -3.85110
C          3.91181       -1.08795       -3.57358
C          2.35767        0.77651       -4.18572
C          6.07884        2.81865        0.64912
C          4.33396        2.89261        2.40967
C          5.69471        0.81197        2.12654
H          4.56567        2.32435       -3.65343
H          5.69757        1.01032       -3.36208
H          4.90687        1.14868       -4.92425
H          3.06746       -1.70785       -3.27385
H          4.11799       -1.28663       -4.62494
H          4.77676       -1.40354       -2.99473
H          2.02822        1.78941       -3.95605
H          2.58244        0.73075       -5.25096
H          1.52529        0.09804       -4.00610
H          6.77069        3.27354        1.35757
H          6.66430        2.21553       -0.04060
H          5.60542        3.61600        0.07725
H          3.68274        2.33347        3.07998
H          5.07495        3.39544        3.03076
H          3.73973        3.65844        1.91187
H          4.95539        0.21745        2.66287
H          6.41855        1.18480        2.85078
H          6.21731        0.14988        1.44046
H          7.21118       -0.15588       -0.50724
H          5.63788       -0.97390       -0.67064
H          6.65334       -0.67166       -2.10107
