58
-89.86787339
P          1.79937       -0.23547        0.72644
C          1.68386        1.55144        0.91356
C          2.31706        2.15778        1.97492
C          2.21272        3.52632        2.14980
C          1.47582        4.28002        1.25831
C          0.85232        3.67009        0.18891
C          0.96144        2.30324        0.01559
H          0.48314        1.82596       -0.82316
H          2.89718        1.56146        2.66093
C          3.44271       -0.68851        0.16485
C          4.27740        0.28522       -0.33514
C          5.53730       -0.05581       -0.79336
C          5.95028       -1.37277       -0.75166
C          5.10684       -2.34770       -0.25662
C          3.84749       -2.00325        0.20123
H          3.17139       -2.75917        0.56750
H          3.93816        1.30810       -0.36875
C          1.40809       -1.03274        2.34272
C         -0.08259       -1.16189        2.63536
C         -0.89322        0.09990        2.34091
P         -1.58702        0.04860        0.63152
C         -2.97006       -1.09795        0.65440
C         -2.77677       -2.44526        0.45014
C         -3.85750       -3.30768        0.48450
C         -5.12468       -2.81488        0.72584
C         -5.31435       -1.46268        0.93162
C         -4.23136       -0.60241        0.89615
H         -4.36276        0.45663        1.05247
H         -1.78561       -2.81818        0.24855
C         -2.13182        1.66911        0.08081
C         -2.35159        2.68924        0.97897
C         -2.76236        3.92839        0.52126
C         -2.95391        4.13562       -0.83084
C         -2.74149        3.10666       -1.72680
C         -2.33207        1.86978       -1.26533
H         -2.16681        1.04973       -1.94506
H         -2.19792        2.51715        2.03183
Pd         0.09614       -0.77494       -0.74629
Cl         1.63329       -1.73922       -2.06591
Cl        -1.58339       -1.15143       -2.20041
H         -1.75144        0.19974        3.01014
H         -0.28598        0.99799        2.46163
H         -0.50299       -1.99050        2.04854
H         -0.21934       -1.46511        3.68536
H          1.89938       -2.00779        2.36452
H          1.89717       -0.42412        3.10526
H          2.70574        4.00221        2.98156
H          0.27486        4.25593       -0.50722
H          6.19241        0.70465       -1.18552
H          5.42517       -3.37698       -0.23348
H         -3.70996       -4.36227        0.31907
H         -6.30324       -1.07711        1.11782
H         -2.93011        4.73156        1.21988
H         -2.89466        3.26524       -2.78157
H          1.39001        5.34568        1.39548
H          6.93021       -1.64112       -1.11145
H         -5.96731       -3.48648        0.75123
H         -3.27237        5.10172       -1.18713
