111
-148.55544989
P         -2.20092        2.13737        1.40667
P          0.13291        0.16506        0.61663
C         -1.16123        1.42154        2.70188
C         -0.15248        0.54950        2.35586
C         -2.25308        3.98091        1.53402
C         -1.32580        4.62710        0.52695
C         -1.37280        1.74593        4.02649
H         -2.15271        2.44350        4.28557
C         -0.57995        1.17804        5.00855
H         -0.74496        1.42772        6.04394
C          0.42125        0.29120        4.66219
H          1.03742       -0.15330        5.42639
C          0.63651       -0.02249        3.33203
H          1.41580       -0.71147        3.04997
Pd        -1.41727        1.37124       -0.62561
Cl        -3.07855        2.55197       -1.56189
Cl        -0.52979        0.54470       -2.50868
C         -3.74593        4.29272        1.32692
C         -4.00548        1.75018        1.58443
H         -0.29209        4.30508        0.67528
H         -1.61024        4.35625       -0.49135
H         -1.35573        5.71683        0.59832
H         -3.92600        4.45435        0.25507
H         -4.01168        5.24131        1.81803
H         -4.31640        1.35108        0.60976
C         -4.64618        3.13055        1.83331
C         -4.26547        0.74451        2.68781
H         -1.94822        4.22845        2.55925
H         -4.82058        3.24979        2.91130
H         -5.64266        3.17766        1.36895
H         -3.99321        1.15587        3.66072
H         -5.32091        0.46637        2.73448
H         -3.67918       -0.16553        2.54879
C         -1.29443       -4.02968       -0.43442
C         -2.20666       -3.07045        0.07708
C         -1.71602       -1.82347        0.43021
C         -0.40650       -1.48992        0.19784
C          0.44008       -2.36448       -0.43227
C          0.01992       -3.63343       -0.79064
O         -1.67499       -5.39343       -0.54181
C         -3.70637       -3.35657        0.25034
H         -2.35649       -1.08615        0.88222
H          1.44165       -2.04010       -0.64909
C          0.99254       -4.56376       -1.53136
C          4.38017        0.93863       -0.84757
C          4.14552       -0.08327        0.10752
C          2.84492       -0.29739        0.53307
C          1.81743        0.50338        0.10443
C          2.06155        1.56690       -0.72491
C          3.33677        1.83426       -1.19325
O          5.64326        1.03799       -1.48929
C          5.26761       -0.97868        0.65671
H          2.61536       -1.11568        1.19274
H          1.23005        2.17767       -1.03005
C          3.55291        3.04974       -2.10767
C         -4.18690       -4.45854       -0.71175
C         -3.97709       -3.77251        1.70370
C         -4.53193       -2.09179       -0.07750
C          0.23575       -5.53374       -2.45685
C          1.95275       -3.74541       -2.42464
C          1.82028       -5.35226       -0.50560
C         -1.44126       -6.14352        0.64328
H         -5.26480       -4.60073       -0.63830
H         -3.94811       -4.19818       -1.74237
H         -3.71441       -5.41227       -0.49138
H         -5.03620       -3.97430        1.86173
H         -3.41963       -4.67022        1.96384
H         -3.67692       -2.98413        2.39352
H         -4.36622       -1.30025        0.64947
H         -4.27301       -1.70645       -1.06338
H         -5.59898       -2.31268       -0.07279
H         -0.39465       -4.98418       -3.15510
H          0.92825       -6.14621       -3.03370
H         -0.40276       -6.20581       -1.88855
H          2.55932       -4.40375       -3.04607
H          1.39504       -3.08134       -3.08449
H          2.63949       -3.14159       -1.83413
H          2.53641       -6.00683       -1.00175
H          2.37467       -4.67594        0.14474
H          1.18124       -5.96845        0.12321
H         -0.92010       -5.53331        1.38204
H         -2.39014       -6.48093        1.05965
H         -0.83772       -7.01962        0.40568
C          5.75040        0.25853       -2.67408
C          5.39496       -2.23302       -0.22112
C          6.60910       -0.22460        0.70291
C          4.95143       -1.42011        2.10398
C          3.32004        2.63063       -3.56724
C          2.55927        4.18088       -1.75571
C          4.96946        3.62800       -1.93920
H          6.19117       -2.88331        0.14028
H          4.46659       -2.80311       -0.21450
H          5.61608       -1.97188       -1.25334
H          6.94529        0.04960       -0.29378
H          6.51481        0.69031        1.28687
H          7.38802       -0.83752        1.15579
H          4.73065       -0.55767        2.73243
H          4.10133       -2.09958        2.14267
H          5.79985       -1.94527        2.54219
H          4.01493        1.85057       -3.86885
H          2.30998        2.24323       -3.69933
H          3.44888        3.47633       -4.24213
H          1.53460        3.91130       -2.00735
H          2.60150        4.41739       -0.69282
H          2.79495        5.08890       -2.31021
H          5.72899        2.91358       -2.24664
H          5.15667        3.88691       -0.89763
H          5.09999        4.52688       -2.54123
H          5.98432        0.90694       -3.51830
H          6.55881       -0.46428       -2.56543
H          4.81525       -0.26833       -2.86853
