111
-148.55465030
P         -1.64628        2.78824        0.19301
P         -0.48597       -0.14377        0.48974
C         -1.41809        2.06433        1.84355
C         -0.98529        0.76058        1.96810
C         -0.45073        4.17437       -0.07279
C          0.51058        3.84198       -1.19428
C         -1.64478        2.82221        2.97473
H         -1.94270        3.85286        2.87346
C         -1.46353        2.26291        4.22792
H         -1.64440        2.85391        5.11089
C         -1.04467        0.95176        4.34873
H         -0.89765        0.51857        5.32440
C         -0.79413        0.20127        3.21420
H         -0.43140       -0.81159        3.29005
Pd        -1.55905        0.96912       -1.22799
Cl        -2.89002        2.02409       -2.68922
Cl        -1.26204       -0.84565       -2.52390
C         -1.36086        5.38595       -0.36090
C         -3.24564        3.70413        0.01465
H         -0.03222        3.64117       -2.12026
H          1.20186        4.66611       -1.38538
H          1.10128        2.95317       -0.96406
H         -1.39352        5.54947       -1.44676
H         -0.92188        6.30307        0.05992
H         -3.57926        3.52454       -1.01555
C         -2.80790        5.17164        0.16818
C         -4.30234        3.23917        0.99375
H          0.08118        4.30497        0.87866
H         -2.85981        5.45029        1.22954
H         -3.51760        5.83800       -0.34579
H         -4.50006        2.17055        0.88307
H         -3.98828        3.40823        2.02395
H         -5.24319        3.77450        0.84734
C         -0.55901       -4.66783        0.98790
C         -1.61484       -4.02360        0.29314
C         -1.58830       -2.64228        0.19195
C         -0.52959       -1.92058        0.67651
C          0.54574       -2.54679        1.25118
C          0.57951       -3.92442        1.39092
O         -0.65470       -6.04905        1.30505
C         -2.77695       -4.79901       -0.34760
H         -2.39190       -2.10756       -0.28423
H          1.36793       -1.93765        1.58646
C          1.83370       -4.58591        1.98339
C          3.61367        1.40741       -0.74044
C          2.91139        0.51339       -1.59185
C          1.66978        0.05995       -1.18167
C          1.16362        0.39423        0.04559
C          1.88978        1.15719        0.92120
C          3.13872        1.64549        0.57699
O          4.73141        2.12744       -1.23506
C          3.43532        0.02426       -2.95148
H          1.05359       -0.52697       -1.84139
H          1.45991        1.39023        1.88004
C          3.92422        2.41736        1.64964
C         -2.31515       -6.18406       -0.83633
C         -3.91458       -4.95014        0.67310
C         -3.31786       -4.04407       -1.58376
C          2.05627       -5.98690        1.38516
C          3.09484       -3.75249        1.65836
C          1.68651       -4.67918        3.50951
C         -1.28007       -6.31497        2.55406
H         -1.99389       -6.81033       -0.00773
H         -3.12063       -6.70682       -1.35144
H         -1.47754       -6.08725       -1.52628
H         -4.75844       -5.48684        0.24033
H         -3.58441       -5.49687        1.55312
H         -4.26860       -3.97370        1.00286
H         -4.04583       -4.65140       -2.12100
H         -3.81855       -3.11843       -1.30430
H         -2.50999       -3.80091       -2.27347
H          2.11571       -5.93484        0.29854
H          2.98114       -6.42882        1.75501
H          1.24372       -6.66178        1.64261
H          3.09465       -2.79820        2.18307
H          3.99756       -4.28277        1.96084
H          3.16471       -3.55602        0.58870
H          2.56720       -5.13669        3.95957
H          1.56023       -3.68848        3.94567
H          0.81988       -5.27501        3.78592
H         -0.58924       -6.85537        3.20098
H         -1.57751       -5.38333        3.03700
H         -2.15884       -6.94016        2.39690
C          4.36854        3.35887       -1.83811
C          4.93739        0.30031       -3.13505
C          3.24007       -1.50494       -3.05305
C          2.64320        0.70866       -4.07831
C          5.40590        2.59674        1.27655
C          3.27494        3.79497        1.86376
C          3.88569        1.62904        2.97778
H          5.13983        1.36790       -3.17561
H          5.50875       -0.11675       -2.30652
H          5.30767       -0.14057       -4.06028
H          3.66776       -1.89069       -3.97804
H          3.72760       -2.01074       -2.22008
H          2.18676       -1.78009       -3.04348
H          2.76674        1.78943       -4.04622
H          2.97722        0.36134       -5.05555
H          1.57840        0.49403       -3.99226
H          5.96326        3.05765        2.09170
H          5.86457        1.63439        1.05207
H          5.51885        3.23175        0.40123
H          2.23867        3.69114        2.18393
H          3.80626        4.36137        2.62810
H          3.28145        4.38057        0.94642
H          4.26781        0.61846        2.83584
H          2.87497        1.55398        3.37554
H          4.49727        2.11646        3.73663
H          3.91497        4.01824       -1.10014
H          5.25994        3.83580       -2.24601
H          3.65299        3.18651       -2.64042
