58
-89.86643534
P          1.71217        0.26357        0.74044
C          3.04892        1.37087        0.27260
C          2.98623        2.69910        0.62857
C          3.99491        3.56349        0.24143
C          5.05572        3.09286       -0.50682
C          5.10854        1.76245       -0.87227
C          4.09897        0.90094       -0.48285
H          4.11836       -0.13569       -0.77789
H          2.14361        3.05933        1.19693
C          2.20838       -1.45386        0.56933
C          1.39749       -2.34821       -0.08876
C          1.76866       -3.67643       -0.18495
C          2.95336       -4.10130        0.38232
C          3.76240       -3.20254        1.04939
C          3.38477       -1.87483        1.14678
H          4.00164       -1.16363        1.67344
H          0.46664       -2.01110       -0.51019
C          1.27335        0.54091        2.49880
C          0.18354       -0.40624        2.97960
C         -1.22246        0.04246        2.61281
P         -1.67135       -0.11203        0.83318
C         -1.83914       -1.82706        0.31941
C         -2.02727       -2.08186       -1.02008
C         -2.13251       -3.38446       -1.47002
C         -2.05092       -4.42786       -0.56978
C         -1.86868       -4.17006        0.77474
C         -1.76345       -2.86497        1.22094
H         -1.62308       -2.65720        2.26862
H         -2.08193       -1.25243       -1.70663
C         -3.22395        0.76760        0.63647
C         -3.23658        2.14029        0.73042
C         -4.42668        2.82795        0.57144
C         -5.59412        2.13420        0.32008
C         -5.57547        0.75646        0.22657
C         -4.38418        0.07175        0.38526
H         -4.35203       -1.00310        0.30875
H         -2.31487        2.66841        0.91832
Pd        -0.08451        0.74143       -0.64132
Cl         1.38076        1.43017       -2.19756
Cl        -1.85454        1.01865       -2.01267
H         -1.97884       -0.52439        3.16092
H         -1.36720        1.08994        2.88416
H          0.37178       -1.41191        2.58045
H          0.25160       -0.51169        4.07384
H          2.20123        0.40081        3.05898
H          0.97541        1.58246        2.62846
H          3.94840        4.60389        0.51835
H          5.93052        1.39636       -1.46521
H          1.12884       -4.37768       -0.69478
H          4.68512       -3.53417        1.49645
H         -2.27510       -3.58290       -2.51950
H         -1.80607       -4.98527        1.47675
H         -4.44053        3.90331        0.63955
H         -6.48566        0.21527        0.02669
H          5.83987        3.76639       -0.81209
H          3.24488       -5.13633        0.30822
H         -2.13085       -5.44518       -0.91672
H         -6.52113        2.66935        0.19360
