171
-217.84688301
P         -1.57926        0.37950       -0.35565
P          1.59408       -0.47133       -0.28210
C         -0.83446        1.25776       -1.73245
C          0.87274       -1.47554       -1.58622
C         -0.05694        0.58209       -2.66589
C          0.57182        1.32223       -3.68570
C          0.36926        2.69083       -3.75174
C         -0.42685        3.33769       -2.83021
C         -1.02097        2.61580       -1.81356
C          1.04308       -2.83719       -1.52289
C          0.44274       -3.65788       -2.45696
C         -0.34214       -3.10436       -3.44606
C         -0.52745       -1.73429       -3.52808
C          0.10482       -0.89563       -2.58991
Cl         1.54037        0.30446        2.90613
Cl        -1.61854       -0.44944        2.88213
C         -1.38906       -1.17860       -4.60766
C          1.43441        0.65947       -4.70219
H         -0.58397        4.40145       -2.90179
H         -1.63450        3.11257       -1.07904
H          1.64895       -3.26232       -0.73952
H          0.58340       -4.72527       -2.40829
H          0.84532        3.25131       -4.53860
H         -0.82560       -3.74033       -4.16841
C         -3.91703       -3.29838       -1.55862
C         -2.93370       -3.41574       -0.58471
C         -2.22858       -2.27156       -0.23525
C         -2.48439       -1.07880       -0.86379
C         -3.44428       -0.98304       -1.84137
C         -4.19028       -2.09873       -2.20416
H         -4.50249       -4.16420       -1.80710
H         -1.48123       -2.29774        0.53836
H         -3.61010       -0.02783       -2.30981
C         -4.28767        3.12773        2.03355
C         -4.86207        2.15850        1.22134
C         -4.01145        1.33067        0.50049
C         -2.64977        1.48421        0.58298
C         -2.09993        2.45149        1.38852
C         -2.91211        3.28309        2.14881
H         -4.93169        3.77772        2.59668
H         -4.40636        0.55113       -0.12548
H         -1.02874        2.54226        1.43294
C          4.45794       -2.82517        2.33588
C          3.10834       -3.16041        2.35444
C          2.25042       -2.45346        1.52227
C          2.72484       -1.44093        0.72662
C          4.05717       -1.11310        0.73338
C          4.95505       -1.80287        1.53548
H          5.13640       -3.36713        2.96589
H          1.19763       -2.67945        1.50924
H          4.39997       -0.29976        0.11805
C          3.82077        3.24209       -1.58316
C          2.84474        3.35417       -0.60021
C          2.14887        2.20662       -0.24601
C          2.42421        1.00771       -0.85467
C          3.39256        0.91123       -1.82329
C          4.11629        2.03486       -2.20557
H          4.38542        4.11148       -1.86245
H          1.40017        2.24276        0.52665
H          3.58944       -0.05272       -2.26095
Pd        -0.03388       -0.02512        1.33911
C         -2.44645       -5.85193       -0.96283
C         -2.68445       -4.76481        0.10235
C         -3.91310       -5.12970        0.95319
C         -1.44639       -4.70817        1.01807
H         -2.22081       -6.81098       -0.49686
H         -3.32210       -5.98980       -1.59560
H         -1.60834       -5.58385       -1.60497
H         -3.76554       -6.08044        1.46513
H         -4.09929       -4.36467        1.70679
H         -4.80693       -5.21538        0.33602
H         -1.24718       -5.68324        1.46232
H         -0.56313       -4.41109        0.45362
H         -1.59090       -4.00000        1.83357
C         -5.15513       -3.11496       -4.29753
C         -5.33505       -2.02334       -3.22490
C         -5.37885       -0.65256       -3.92830
C         -6.67049       -2.24083       -2.49072
H         -5.94148       -3.05335       -5.04969
H         -4.19736       -3.00865       -4.80471
H         -5.19363       -4.11262       -3.86242
H         -6.17505       -0.62497       -4.67208
H         -5.56924        0.14978       -3.21595
H         -4.44009       -0.44357       -4.44024
H         -6.69852       -3.21661       -2.00676
H         -6.81521       -1.48292       -1.72151
H         -7.51076       -2.18486       -3.18253
C         -6.81332        0.88710        0.19568
C         -6.38920        2.01592        1.15621
C         -7.00377        3.33648        0.65738
C         -6.92724        1.68827        2.56103
H         -7.89896        0.79917        0.15646
H         -6.46150        1.08207       -0.81719
H         -6.41663       -0.07438        0.52137
H         -8.08814        3.25773        0.58125
H         -6.77647        4.15997        1.33330
H         -6.61395        3.59415       -0.32725
H         -8.00927        1.55894        2.54447
H         -6.48222        0.76731        2.93728
H         -6.69709        2.48385        3.26868
C         -2.95718        4.18507        4.49447
C         -2.33292        4.34477        3.09471
C         -2.65172        5.74211        2.53642
C         -0.80479        4.20293        3.23752
H         -2.78115        3.18089        4.87974
H         -2.52433        4.89670        5.19734
H         -4.03287        4.35385        4.47527
H         -3.72734        5.89543        2.45394
H         -2.24912        6.52228        3.18221
H         -2.21897        5.86768        1.54393
H         -0.30535        4.38287        2.28761
H         -0.41290        4.92492        3.95370
H         -0.53491        3.20659        3.58767
C          2.10142       -5.44984        2.35732
C          2.54214       -4.27437        3.24630
C          1.33223       -3.73552        4.03634
C          3.58813       -4.78258        4.25733
H          1.35467       -5.13225        1.63153
H          2.94940       -5.85449        1.80511
H          1.67103       -6.25333        2.95475
H          0.51878       -3.44176        3.37485
H          0.94406       -4.49114        4.71892
H          1.61517       -2.86222        4.62356
H          3.95314       -3.96851        4.88334
H          3.15603       -5.53805        4.91350
H          4.43844       -5.23836        3.75069
C          6.55751        0.07566        1.96098
C          6.43491       -1.39477        1.51819
C          6.98760       -1.55132        0.08908
C          7.27890       -2.26522        2.46846
H          7.60018        0.39220        1.98016
H          6.02049        0.73974        1.28449
H          6.14374        0.21185        2.95991
H          6.45232       -0.91460       -0.61422
H          8.04249       -1.28080        0.04651
H          6.88871       -2.58190       -0.25123
H          8.32600       -1.96384        2.44104
H          6.93519       -2.16840        3.49813
H          7.23086       -3.31628        2.18427
C          3.47394        5.80741       -0.32927
C          2.53371        4.67306        0.12088
C          2.70686        4.47295        1.63900
C          1.08491        5.08781       -0.18945
H          4.51519        5.55650       -0.12757
H          3.36594        6.00760       -1.39511
H          3.24713        6.73096        0.20332
H          2.03614        3.70421        2.01976
H          3.72662        4.16732        1.87193
H          2.49830        5.39515        2.18099
H          0.81208        5.99519        0.34906
H          0.96261        5.27900       -1.25484
H          0.38217        4.30464        0.09017
C          6.58758        2.28371       -2.50307
C          5.26443        1.96216       -3.22222
C          5.02558        2.98495       -4.34896
C          5.38068        0.55982       -3.85136
H          6.76563        1.57886       -1.69104
H          7.43052        2.22632       -3.19148
H          6.57118        3.28618       -2.07674
H          5.81252        2.92640       -5.10072
H          4.07301        2.80098       -4.84407
H          5.01046        4.00416       -3.96519
H          4.45942        0.27883       -4.36012
H          6.18559        0.53120       -4.58567
H          5.60051       -0.19349       -3.09521
H         -1.68414       -0.15025       -4.39501
H          1.79991       -0.30485       -4.34651
H         -2.30085       -1.76600       -4.71475
H         -0.86958       -1.19120       -5.56675
H          2.30295        1.27536       -4.93628
H          0.88555        0.49255       -5.62988
