58
-89.86873385
P          1.75432       -0.31711        0.81469
C          1.52537        1.47027        0.88181
C          1.42401        2.14986        2.07415
C          1.21789        3.51717        2.07211
C          1.12161        4.19920        0.87579
C          1.23786        3.51795       -0.31863
C          1.44307        2.15050       -0.31233
H          1.53843        1.60562       -1.23857
H          1.51584        1.61831        3.00629
C          3.43501       -0.71402        0.32477
C          3.79860       -2.03076        0.15958
C          5.09083       -2.34445       -0.22280
C          6.00962       -1.33579       -0.43606
C          5.64006       -0.01565       -0.26990
C          4.34712        0.29453        0.11126
H          4.04374        1.32061        0.24121
H          3.06622       -2.80740        0.31455
C          1.37152       -1.15562        2.41243
C         -0.10108       -1.47339        2.62960
C         -1.02927       -0.27450        2.46776
P         -1.57625       -0.07570        0.71832
C         -3.02664       -1.10535        0.47269
C         -2.89639       -2.46319        0.29169
C         -4.02395       -3.24268        0.10589
C         -5.27423       -2.65632        0.10506
C         -5.40033       -1.29344        0.28809
C         -4.27073       -0.51639        0.47268
H         -4.35178        0.54984        0.61243
H         -1.91440       -2.90789        0.27844
C         -1.93630        1.63507        0.30323
C         -2.12149        2.58860        1.27860
C         -2.39063        3.89609        0.91609
C         -2.47736        4.23814       -0.41924
C         -2.30301        3.27583       -1.39392
C         -2.03513        1.97019       -1.02754
H         -1.90627        1.19942       -1.77056
H         -2.05606        2.31134        2.31791
Pd         0.09393       -0.74496       -0.75144
Cl         1.71126       -1.48257       -2.11755
Cl        -1.55545       -1.07871       -2.24371
H         -1.94450       -0.38447        3.05523
H         -0.54575        0.64264        2.80334
H         -0.41463       -2.26008        1.92978
H         -0.22944       -1.91536        3.63015
H          1.97340       -2.06705        2.44244
H          1.75327       -0.51390        3.20776
H          1.13127        4.04982        3.00493
H          1.16236        4.04755       -1.25403
H          5.37706       -3.37441       -0.35883
H          6.35581        0.77197       -0.43915
H         -3.92509       -4.30539       -0.04293
H         -6.37546       -0.83480        0.28451
H         -2.52909        4.64747        1.67605
H         -2.37526        3.53960       -2.43617
H          0.95501        5.26404        0.87428
H          7.01587       -1.57923       -0.73594
H         -6.15288       -3.26304       -0.04188
H         -2.68396        5.25773       -0.70101
