58
-89.86762671
P          1.74537       -0.26915        0.79866
C          1.72168        1.51469        1.03435
C          0.93714        2.32056        0.24182
C          0.90225        3.68420        0.46296
C          1.66152        4.23654        1.47448
C          2.45645        3.42784        2.26210
C          2.48478        2.06224        2.04075
H          3.10438        1.42077        2.64739
H          0.35011        1.88808       -0.54998
C          3.36709       -0.80524        0.24630
C          3.66798       -2.14775        0.21504
C          4.90757       -2.56397       -0.23728
C          5.83484       -1.63208       -0.66000
C          5.52529       -0.28660       -0.63527
C          4.28510        0.12622       -0.18262
H          4.02584        1.17253       -0.16738
H          2.92711       -2.86711        0.52599
C          1.31287       -1.07199        2.40113
C         -0.18438       -1.19064        2.65621
C         -0.97243        0.08033        2.34602
P         -1.59782        0.05013        0.61158
C         -2.96928       -1.11010        0.56152
C         -4.24387       -0.63123        0.76419
C         -5.31876       -1.50202        0.74144
C         -5.10786       -2.84804        0.51678
C         -3.82748       -3.32421        0.31504
C         -2.75491       -2.45132        0.33921
H         -1.75304       -2.81116        0.16915
H         -4.39197        0.42329        0.93530
C         -2.14803        1.67325        0.07160
C         -2.40117        2.67776        0.97853
C         -2.81097        3.91999        0.52846
C         -2.96793        4.14608       -0.82504
C         -2.72230        3.13268       -1.73014
C         -2.31404        1.89263       -1.27637
H         -2.12429        1.08435       -1.96380
H         -2.27385        2.49142        2.03245
Pd         0.10651       -0.71851       -0.77461
Cl         1.70292       -1.35618       -2.21779
Cl        -1.53651       -1.10688       -2.26639
H         -1.85504        0.17966        2.98279
H         -0.36255        0.97193        2.49891
H         -0.59724       -2.01269        2.05496
H         -0.35027       -1.49623        3.70140
H          1.79847       -2.04974        2.43226
H          1.78693       -0.46614        3.17573
H          0.27742        4.31237       -0.15042
H          3.05306        3.85835        3.04951
H          5.14514       -3.61468       -0.26636
H          6.24570        0.44066       -0.97197
H         -6.31785       -1.12932        0.89684
H         -3.66317       -4.37386        0.13466
H         -3.00516        4.71087        1.23422
H         -2.84905        3.30572       -2.78614
H          1.63504        5.29993        1.64831
H          6.79938       -1.95591       -1.01566
H         -5.94411       -3.52774        0.49633
H         -3.28591        5.11453       -1.17533
