59
-75.80958880
Cl         1.67281        0.46380        2.31270
P          1.60361       -0.10442       -0.87945
P         -1.62123       -0.04539       -0.78287
C          0.57521        0.21934       -2.37837
H          0.34026        1.28519       -2.42802
H          1.16261       -0.02890       -3.26794
C         -0.67998       -0.59778       -2.27221
H         -0.44203       -1.65868       -2.15734
H         -1.32270       -0.49454       -3.15208
C          2.62388       -1.62196       -1.21317
H          2.48163       -1.80647       -2.28669
C          2.97078        1.12588       -0.64343
H          3.05373        1.27854        0.43951
C         -3.03812       -1.17449       -0.40052
H         -3.24571       -1.01636        0.66537
C         -2.63578        1.43856       -1.23951
H         -2.05891        2.03817       -1.95429
C          4.06959       -1.15392       -0.97021
H          4.37220       -1.41529        0.05097
H          4.76367       -1.69873       -1.62797
C          4.20989        0.37917       -1.16590
H          4.33451        0.60418       -2.23412
H          5.12009        0.75765       -0.67606
C         -4.19231       -0.61531       -1.26207
H         -4.44213       -1.34561       -2.04457
H         -5.10269       -0.53139       -0.65028
C         -3.85270        0.76439       -1.90844
H         -4.72279        1.43639       -1.86432
H         -3.64695        0.62639       -2.98114
C          2.19493       -2.85837       -0.42370
H          2.78894       -3.71866       -0.76230
H          1.16018       -3.10391       -0.69563
C          2.70753        2.45923       -1.33237
H          3.62606        3.06214       -1.30911
H          2.51058        2.27726       -2.39675
C         -2.71797       -2.64319       -0.64646
H         -3.64280       -3.23160       -0.56728
H         -2.38717       -2.76714       -1.68549
C         -3.02250        2.28066       -0.02486
H         -3.85597        2.94135       -0.30173
H         -3.42859        1.61419        0.74737
C          2.31163       -2.72981        1.08819
H          1.90450       -3.60304        1.60339
H          1.77474       -1.85795        1.45878
H          3.34847       -2.62557        1.41021
C          1.56258        3.23456       -0.70094
H          1.76717        3.45576        0.34835
H          0.63600        2.66132       -0.72968
H          1.37806        4.18392       -1.20875
C         -1.67498       -3.18560        0.31763
H         -2.02373       -3.12651        1.35041
H         -0.75246       -2.60790        0.26378
H         -1.42524       -4.22898        0.11233
C         -1.88402        3.11326        0.54265
H         -2.20786        3.72385        1.38858
H         -1.06688        2.48596        0.89698
H         -1.47526        3.78901       -0.21079
Cl        -1.59863        0.06361        2.36263
Pd         0.04061        0.06965        0.82861
