100
-131.98170917
C         -1.68410        3.76254       -1.48639
C         -2.40220        2.48385       -1.52102
C         -0.28685        3.51404       -1.57771
C         -0.06358        2.04358       -1.60593
C          1.11766        1.45895       -2.30088
C         -1.43348        1.42591       -1.56831
C         -1.81516        0.01075       -1.97990
C         -0.84813       -0.69498       -2.90695
Cl         1.01263       -0.50963        2.79731
Cl        -1.83090       -1.76414        2.39181
C          3.25335        0.44707       -3.80435
C          2.51960        1.51254       -4.28686
C          2.93763       -0.10292       -2.57041
C          1.47859        2.01489       -3.54762
C          1.88176        0.37113       -1.82754
H         -3.48401        2.36243       -1.59713
H          0.49296        4.27239       -1.68313
H         -0.57147       -0.06104       -3.75293
H          0.06303       -0.96630       -2.37508
H         -1.27257       -1.61815       -3.30908
H          4.07989        0.05621       -4.37498
H          2.76624        1.94955       -5.24098
H          3.55454       -0.89641       -2.18290
H          0.90066        2.83990       -3.92711
H         -2.15413        4.74964       -1.50799
P          1.73108       -0.30379       -0.15286
H         -2.78918        0.07380       -2.48178
P         -2.13162       -1.01715       -0.49199
H         -3.44241       -3.02306       -0.30862
C         -1.65985       -3.75890       -1.24130
C         -2.71850       -2.67650       -1.04686
C         -1.18874       -4.31466        0.10482
H         -3.18956        0.77713        0.63362
C         -4.88163       -0.07766       -0.37500
C         -3.55128       -0.21718        0.38231
H         -4.65015        0.20336       -1.41684
C         -5.69015       -1.37760       -0.40070
H          3.58534       -1.81565       -0.39442
H          2.51392        0.80340        1.86030
C          3.56888        3.25162        1.16599
C          2.74051        2.28052        0.30574
C          2.85712        0.83921        0.82142
C          4.33483        0.41241        0.80049
C          5.20272        1.36867        1.64516
C          5.04969        2.82838        1.17586
H          3.18136        3.24807        2.19229
H          3.45531        4.28523        0.81022
H          3.11381        2.31206       -0.72535
H          1.69094        2.58564        0.23763
H          4.45068       -0.61895        1.15448
H          4.68778        0.41225       -0.23751
H          4.90200        1.29350        2.69764
H          6.25726        1.06004        1.61959
H          5.46334        2.93005        0.16460
H          5.64422        3.50529        1.80566
C          2.70104       -4.28427       -1.14778
C          1.92254       -2.95347       -1.10756
C          2.54334       -1.98406       -0.09969
C          2.55523       -2.62174        1.29762
C          3.35804       -3.93690        1.28994
C          2.78553       -4.92410        0.25344
H          3.71447       -4.09946       -1.52494
H          2.24264       -4.97834       -1.86615
H          0.89438       -3.14347       -0.79331
H          1.85127       -2.49781       -2.10399
H          2.93853       -1.91842        2.04800
H          1.52368       -2.83181        1.60233
H          4.40597       -3.72105        1.04756
H          3.37496       -4.38738        2.29223
H          1.78618       -5.24336        0.57194
H          3.38724       -5.84352        0.22232
H         -0.80848       -3.29442       -1.76549
C         -2.19097       -4.89086       -2.12638
H         -3.71254       -0.74072        1.32446
C         -5.72284        1.04754        0.23877
H         -3.26302       -2.50785       -1.97789
H         -0.42331       -5.08027       -0.02510
H         -2.01970       -4.77588        0.63923
H         -0.78669       -3.53548        0.75116
H         -1.43468       -5.66108       -2.28616
H         -3.05417       -5.36834       -1.66164
H         -2.50558       -4.52243       -3.10419
H         -6.67885       -1.21712       -0.83388
H         -5.20893       -2.15700       -0.98836
H         -5.83607       -1.76132        0.60951
H         -5.95583        0.82624        1.28077
H         -5.19780        2.00328        0.21519
H         -6.66841        1.17543       -0.29043
Fe        -1.08298        2.67191        0.04783
C         -2.42624        3.07541        1.55902
C         -1.55515        4.20090        1.27112
C         -0.18116        3.78674        1.48483
C         -0.21435        2.38468        1.85377
C         -1.59389        1.95669        1.95078
H         -3.51820        3.09696        1.56216
H         -1.88283        5.21147        1.01362
H          0.70492        4.42122        1.40336
H          0.63483        1.78259        2.17635
H         -1.92574        0.98297        2.31743
Pd        -0.30538       -0.84988        0.99009
