75
-122.81864821
P          1.84432       -0.56540       -0.00744
C          3.18329       -1.26107       -0.99019
C          4.42946       -1.35367       -0.41279
C          5.48105       -1.89889       -1.12730
C          5.27404       -2.35538       -2.41368
C          4.01943       -2.27225       -2.98406
C          2.97049       -1.72663       -2.26729
H          1.98776       -1.65608       -2.70399
H          3.85710       -2.62977       -3.98762
H          6.09232       -2.77934       -2.97257
H          6.45847       -1.96862       -0.67893
H          4.57154       -1.00659        0.59893
C          1.70033       -1.59443        1.45875
C          1.68335       -1.03083        2.71384
C          1.66303       -1.84291        3.83251
C          1.65923       -3.21582        3.68505
C          1.67148       -3.77747        2.42359
C          1.69454       -2.96199        1.30629
H          1.72312       -3.38469        0.31420
H          1.66530       -4.84883        2.30848
H          1.63921       -3.85015        4.55613
H          1.64484       -1.40397        4.81645
H          1.67865        0.04212        2.81230
C          2.22080        1.13382        0.45331
C          3.39147        1.77651        0.12514
C          3.56342        3.12259        0.41555
C          2.52316        3.81133        1.03846
C          1.33933        3.18326        1.35630
C          1.18583        1.81657        1.07379
O         -0.00745        1.13891        1.37176
C         -1.19272        1.82159        1.05344
C         -1.34171        3.19121        1.32382
C         -2.51177        3.82651        0.97151
C         -3.54758        3.13851        0.34047
C         -3.37710        1.79061        0.05693
C         -2.22134        1.14011        0.42077
P         -1.84650       -0.57123        0.00451
C         -1.69972       -1.56221        1.49798
C         -1.64058       -0.96876        2.73799
C         -1.61887       -1.75259        3.87647
C         -1.65582       -3.12828        3.76445
C         -1.70999       -3.72066        2.51833
C         -1.73430       -2.93298        1.38130
H         -1.79516       -3.37981        0.40135
H         -1.73531       -4.79432        2.43047
H         -1.63478       -3.74088        4.65093
H         -1.56776       -1.28967        4.84818
H         -1.60294        0.10547        2.80946
C         -3.17991       -1.30853       -0.95465
C         -2.93522       -1.90035       -2.17233
C         -3.97365       -2.48464       -2.87394
C         -5.24925       -2.48184       -2.34560
C         -5.48763       -1.90211       -1.11549
C         -4.44667       -1.31825       -0.41624
H         -4.61299       -0.87995        0.55547
H         -6.48124       -1.90693       -0.69838
H         -6.05930       -2.93611       -2.89254
H         -3.78639       -2.94019       -3.83242
H         -1.93482       -1.89951       -2.57376
Pd        -0.00513       -0.06380       -1.40504
Cl        -1.61857        0.81325       -2.71759
Cl         1.57412        1.01329       -2.60891
H         -4.14286        1.25667       -0.47708
C         -4.78527        3.84735       -0.08016
H         -4.69439        4.20636       -1.10607
H         -4.98528        4.70640        0.56151
H         -5.65192        3.18684       -0.02994
H         -2.61797        4.87709        1.17674
S         -0.00760        4.06234        2.10411
H          2.63683        4.85662        1.26549
C          4.83891        3.80828        0.07646
H          4.16953        1.23714       -0.38535
H          5.60506        3.59178        0.82201
H          5.21123        3.48074       -0.89514
H          4.70740        4.89014        0.03293
