111
-148.55335058
P         -2.09819        2.51252        0.55243
P         -0.07833        0.08063        0.53047
C         -1.32208        1.98147        2.09901
C         -0.47062        0.89871        2.08875
C         -1.67244        4.26845        0.16888
C         -0.71744        4.33686       -1.00346
C         -1.56827        2.65475        3.27804
H         -2.21673        3.51582        3.27302
C         -0.97296        2.22565        4.45185
H         -1.16621        2.74842        5.37434
C         -0.13205        1.12900        4.44235
H          0.33047        0.79448        5.35632
C          0.12274        0.46478        3.25571
H          0.78446       -0.38699        3.22823
Pd        -1.57876        0.91271       -1.02342
Cl        -2.95737        1.96925       -2.44240
Cl        -1.00821       -0.75138       -2.42278
C         -3.04778        4.91653       -0.08185
C         -3.94450        2.63117        0.63459
H          0.21174        3.80168       -0.79095
H         -1.16217        3.88000       -1.88983
H         -0.46518        5.37001       -1.25403
H         -3.24515        4.91525       -1.16267
H         -3.03241        5.97647        0.21401
H         -4.31219        2.20082       -0.30651
C         -4.18781        4.15129        0.65008
C         -4.51513        1.87820        1.81762
H         -1.21104        4.67883        1.07678
H         -4.24825        4.49051        1.69330
H         -5.16716        4.38644        0.20612
H         -4.23227        0.82329        1.78900
H         -4.14711        2.28954        2.75830
H         -5.60578        1.93639        1.83863
C         -0.74542       -4.40913        0.83134
C         -1.81952       -3.50894        1.05041
C         -1.56056       -2.14974        0.98035
C         -0.31873       -1.68588        0.63353
C          0.69317       -2.55122        0.31089
C          0.50207       -3.92190        0.36376
O         -0.90793       -5.79195        1.11207
C         -3.24543       -3.98211        1.37276
H         -2.32996       -1.42811        1.19802
H          1.64085       -2.13753        0.01392
C          1.64357       -4.85540       -0.06866
C          4.00155        1.36964       -1.04749
C          3.10674        0.65225       -1.88433
C          1.87507        0.29445       -1.36556
C          1.54689        0.55124       -0.06083
C          2.45360        1.13726        0.78328
C          3.70725        1.51882        0.33425
O          5.14111        2.00411       -1.60545
C          3.41719        0.24542       -3.33462
H          1.13470       -0.17458       -1.99001
H          2.16699        1.30777        1.80625
C          4.70396        2.07068        1.36773
C         -4.28661       -2.97054        0.84083
C         -3.54756       -5.33211        0.69720
C         -3.40996       -4.10246        2.89516
C          2.52852       -5.17478        1.14541
C          1.09298       -6.15603       -0.68144
C          2.51562       -4.18203       -1.15236
C         -0.58500       -6.15313        2.44893
H         -4.11829       -2.76109       -0.21527
H         -5.29751       -3.36326        0.94746
H         -4.25077       -2.02921        1.38706
H         -3.38706       -5.26651       -0.37840
H         -2.90612       -6.12090        1.08223
H         -4.58040       -5.63415        0.86878
H         -4.41702       -4.42797        3.15459
H         -2.70695       -4.81980        3.31192
H         -3.22994       -3.14273        3.37905
H          2.94796       -4.26165        1.56716
H          1.95925       -5.66984        1.92851
H          3.35456       -5.82801        0.86537
H          0.53297       -6.73316        0.05021
H          0.42587       -5.93482       -1.51392
H          1.90016       -6.78768       -1.05150
H          1.89931       -3.82863       -1.97862
H          3.07367       -3.33685       -0.75225
H          3.24479       -4.88465       -1.55509
H          0.20932       -6.89935        2.44387
H         -0.25836       -5.27764        3.01153
H         -1.45928       -6.58987        2.93128
C          4.87227        3.32327       -2.05114
C          3.04356       -1.23889       -3.54165
C          2.58515        1.11148       -4.29520
C          4.91046        0.38380       -3.67756
C          6.14726        2.09290        0.83487
C          4.28323        3.49224        1.77552
C          4.70052        1.16489        2.61940
H          3.30603       -1.56910       -4.54632
H          3.57643       -1.86996       -2.83142
H          1.97633       -1.41063       -3.41269
H          1.51931        0.99378       -4.10183
H          2.82802        2.16655       -4.18400
H          2.77046        0.83134       -5.33175
H          5.22589        1.42409       -3.65508
H          5.52135       -0.16593       -2.96237
H          5.12207       -0.00293       -4.67417
H          6.84867        2.39467        1.61239
H          6.43981        1.10641        0.47688
H          6.25216        2.79191        0.00856
H          4.96079        3.89849        2.52606
H          4.28829        4.16511        0.92026
H          3.27736        3.49543        2.19451
H          3.74054        1.18565        3.13251
H          5.45665        1.48794        3.33453
H          4.91530        0.13196        2.34682
H          4.55957        3.94481       -1.21390
H          5.77517        3.74400       -2.49420
H          4.07720        3.31221       -2.79500
