111
-148.54946314
P         -1.86908        2.73649        0.52997
P         -0.51998       -0.11877        0.50150
C         -1.68090        1.81351        2.08519
C         -1.16600        0.53407        2.05220
C         -0.81374        4.25005        0.50150
C          0.17010        4.18193       -0.64707
C         -2.00797        2.38618        3.29800
H         -2.35458        3.40519        3.32986
C         -1.85360        1.66314        4.46820
H         -2.11407        2.11011        5.41375
C         -1.35871        0.37387        4.42780
H         -1.23348       -0.18668        5.33956
C         -1.00118       -0.18815        3.21559
H         -0.57441       -1.17775        3.16820
Pd        -1.44562        1.19673       -1.14955
Cl        -2.74483        2.39543       -2.52748
Cl        -0.84394       -0.37456       -2.64083
C         -1.84084        5.39665        0.38649
C         -3.54210        3.48410        0.23824
H         -0.35826        4.10279       -1.59950
H          0.80007        5.07372       -0.68953
H          0.82471        3.31101       -0.56131
H         -1.41410        6.21061       -0.21749
H         -2.02719        5.83274        1.37900
H         -3.99715        2.90668       -0.57767
C         -3.18786        4.91309       -0.22275
C         -4.43800        3.44167        1.45788
H         -0.28764        4.28439        1.46469
H         -4.00431        5.59991        0.04465
H         -3.12115        4.94351       -1.32042
H         -4.04162        4.07463        2.25232
H         -5.44199        3.80585        1.22797
H         -4.52943        2.42623        1.84963
C         -0.66031       -4.63186       -0.04365
C          0.41674       -4.03686        0.66212
C          0.42120       -2.65969        0.80950
C         -0.62291       -1.89684        0.35532
C         -1.71905       -2.47738       -0.22577
C         -1.78541       -3.84890       -0.40957
O         -0.59256       -5.99892       -0.42279
C          1.59521       -4.84829        1.22241
H          1.25917       -2.15670        1.26149
H         -2.51391       -1.83561       -0.56521
C         -3.04237       -4.45455       -1.05294
C          3.80788        1.21749        0.01830
C          3.04344        1.70199        1.11096
C          1.73753        1.26108        1.24382
C          1.17401        0.43428        0.30723
C          1.86828        0.06762       -0.81492
C          3.17807        0.46946       -1.00891
O          5.20845        1.44819       -0.02860
C          3.62167        2.65995        2.16409
H          1.14350        1.55128        2.09199
H          1.35733       -0.52663       -1.55187
C          3.89402        0.07514       -2.30980
C          1.15202       -6.26371        1.63475
C          2.70586       -4.92621        0.16363
C          2.16829       -4.17094        2.48835
C         -2.87461       -4.46072       -2.58015
C         -3.29846       -5.88305       -0.53943
C         -4.29336       -3.61878       -0.69867
C          0.01956       -6.21711       -1.68801
H          1.97389       -6.81415        2.09198
H          0.33470       -6.21544        2.35352
H          0.80852       -6.83811        0.77826
H          3.56088       -5.49051        0.53505
H          2.35257       -5.40941       -0.74419
H          3.05130       -3.92831       -0.10556
H          2.65320       -3.22399        2.25587
H          1.38050       -3.98342        3.21754
H          2.91767       -4.80560        2.96089
H         -3.75914       -4.86806       -3.06903
H         -2.71718       -3.44907       -2.95365
H         -2.01851       -5.06000       -2.88038
H         -2.49427       -6.55732       -0.82281
H         -3.37440       -5.89211        0.54735
H         -4.22496       -6.28599       -0.94775
H         -4.26796       -2.63606       -1.16701
H         -5.20009       -4.11393       -1.04547
H         -4.37694       -3.48414        0.37943
H          0.89897       -6.84917       -1.56597
H         -0.67908       -6.73016       -2.34872
H          0.31378       -5.26739       -2.13667
C          5.98129        0.43064        0.59561
C          4.22790        1.84154        3.31384
C          4.68897        3.58386        1.54948
C          2.51602        3.57485        2.73668
C          4.56571       -1.29390       -2.12439
C          2.88492       -0.02352       -3.47706
C          4.94010        1.13121       -2.70986
H          3.47079        1.20958        3.77760
H          5.02625        1.19446        2.95792
H          4.64056        2.49417        4.08277
H          5.04800        4.30831        2.28007
H          5.54844        3.01877        1.19770
H          4.27938        4.13168        0.70140
H          2.94116        4.32155        3.40694
H          2.00090        4.10240        1.93517
H          1.77975        3.01354        3.30984
H          5.29828       -1.26806       -1.32109
H          3.82628       -2.05440       -1.87452
H          5.07561       -1.60537       -3.03565
H          3.40210       -0.17120       -4.42474
H          2.20281       -0.86300       -3.35176
H          2.29367        0.88834       -3.55666
H          4.47775        2.11360       -2.80028
H          5.40126        0.88382       -3.66567
H          5.73399        1.20325       -1.97068
H          5.33207       -0.35042        0.99346
H          6.66917       -0.00321       -0.12996
H          6.56822        0.86238        1.40612
