45
-71.81511203
C          2.30009        1.28495        2.43941
P          1.51139        0.88796        0.84351
P         -1.01404        0.15930       -0.90617
C         -0.36168       -0.35893       -2.52969
Cl         1.49084       -1.88009        2.29551
H          1.54264        1.56402        3.16626
H          0.70064       -0.14032       -2.58740
Cl        -1.22083       -2.71330        0.34636
C          0.45631        2.21331        0.21880
C         -0.62898        1.88921       -0.56600
C         -1.42683        2.88268       -1.09478
C         -1.13182        4.20981       -0.83667
C         -0.03974        4.53549       -0.05559
C          0.75912        3.53561        0.47090
H         -2.27513        2.61256       -1.70318
H         -1.75359        4.98852       -1.24675
H          0.19278        5.56904        0.14173
H          1.62082        3.77889        1.07090
Pd         0.12155       -0.96935        0.76872
H         -0.87515        0.17539       -3.32389
H          2.99825        2.10803        2.31713
H         -0.50667       -1.42693       -2.66501
C         -5.46025       -0.61066       -0.32418
C         -4.75367        0.14431        0.59086
C         -3.40332        0.37518        0.39649
C         -2.77209       -0.14539       -0.71043
C         -3.47114       -0.90269       -1.62254
C         -4.82108       -1.13544       -1.43010
H         -6.51157       -0.79380       -0.17307
H         -5.25079        0.55063        1.45631
H         -2.83551        0.95898        1.10423
H         -2.96023       -1.31593       -2.47685
H         -5.37158       -1.72972       -2.14081
C          4.47704       -0.37026       -2.36141
C          3.78270        0.81631       -2.49697
C          2.88955        1.20801       -1.51614
C          2.70318        0.41334       -0.40867
C          3.38425       -0.77400       -0.27372
C          4.27851       -1.16826       -1.25161
H          5.17260       -0.67626       -3.12574
H          3.93435        1.43550       -3.36581
H          2.33352        2.12675       -1.61071
H          3.18755       -1.39538        0.58535
H          4.81274       -2.09858       -1.15013
H          2.83977        0.41738        2.80818
