105
-153.07333554
Cl        -0.04342        1.91536        3.03834
Pd        -0.61978        1.10793        1.00881
P         -1.30210        0.51746       -1.14558
N         -1.03534       -1.06531       -1.85605
C          0.03103       -1.93852       -1.61209
C          0.31530       -2.44684       -0.31683
C          1.36051       -3.37768       -0.15198
C          1.61791       -3.94903        1.22204
C          2.51104       -5.19915        1.23515
C          3.71498       -5.02190        0.30569
C          3.25411       -4.77028       -1.13795
C          2.11579       -3.78722       -1.25398
C          1.80150       -3.29666       -2.51504
C          0.77845       -2.40297       -2.69460
H          0.54886       -2.03501       -3.67929
H          2.37857       -3.62898       -3.36138
H          4.09351       -4.41159       -1.74738
H          4.31686       -4.17195        0.65067
H          2.83984       -5.43405        2.25738
H          2.07334       -3.16718        1.84050
C         -0.60734       -2.18288        0.81192
C         -0.12320       -1.58543        2.00918
C         -0.99142       -1.48829        3.10175
C         -2.28977       -1.91955        3.01296
C         -2.78240       -2.50052        1.85066
C         -4.21497       -2.98206        1.85225
C         -4.71162       -3.55121        0.51126
C         -3.60012       -4.31280       -0.21627
C         -2.40070       -3.39129       -0.47778
C         -1.93283       -2.65541        0.75332
H         -1.56478       -3.96946       -0.89111
H         -3.97202       -4.75000       -1.15377
H         -5.06285       -2.73351       -0.12974
H         -4.85950       -2.15361        2.17271
H         -2.94806       -1.81223        3.85846
H         -0.63740       -1.02279        4.00479
N          1.15318       -1.01027        2.09853
P          1.55897        0.19902        0.87851
C          2.67405       -0.37229       -0.39470
C          2.51239        0.08922       -1.67640
C          3.41176       -0.28335       -2.65825
C          4.48935       -1.10390       -2.35176
C          4.64518       -1.54295       -1.04331
C          3.74182       -1.17051       -0.06384
H          3.86293       -1.49580        0.95716
H          5.47689       -2.18047       -0.79681
C          5.43385       -1.54211       -3.41580
H          3.27795        0.05850       -3.67026
H          1.68076        0.73406       -1.90059
C          2.39019        1.62680        1.58392
C          2.25904        2.84133        0.95273
C          2.90121        3.95356        1.46522
C          3.67915        3.85387        2.61078
C          3.81725        2.61298        3.21876
C          3.17364        1.50144        2.70558
H          3.28702        0.53649        3.17205
H          4.43257        2.52264        4.09758
C          4.38668        5.04742        3.15131
H          2.80030        4.90781        0.97702
H          1.65251        2.91560        0.06358
H          1.35198       -0.55950        2.98224
H         -1.34406       -0.96192       -2.81414
C         -0.51207        1.81114       -2.10593
C         -0.43863        3.08197       -1.58475
C          0.20691        4.07977       -2.29098
C          0.76916        3.81510       -3.53230
C          0.67400        2.52963       -4.04804
C          0.02868        1.53315       -3.33907
H         -0.03135        0.53261       -3.73354
H          1.11585        2.31183       -5.00541
C          1.49574        4.87985       -4.27777
H          0.27855        5.07240       -1.88012
H         -0.89413        3.29019       -0.62934
C         -3.07686        0.76944       -1.21764
C         -3.61336        1.74642       -2.02259
C         -4.98370        1.92805       -2.06371
C         -5.82549        1.12925       -1.30160
C         -5.26375        0.15434       -0.48893
C         -3.89323       -0.02802       -0.45475
H         -3.44847       -0.76940        0.18771
H         -5.90627       -0.45123        0.12688
C         -7.29849        1.34633       -1.31676
H         -5.40800        2.69818       -2.68502
H         -2.95934        2.36793       -2.61224
Cl        -2.68480        1.91027        1.42149
H          2.94378       -5.71691       -1.59623
H          1.92566       -6.06756        0.90784
H          4.38081       -5.89496        0.35846
H          0.65427       -4.17308        1.69675
H         -3.27807       -5.16211        0.39927
H         -2.66055       -2.65714       -1.24876
H         -4.31660       -3.74634        2.63212
H         -5.58798       -4.19691        0.66343
H          5.08130       -2.45795       -3.89229
H          5.53777       -0.77903       -4.18843
H          6.42624       -1.73621       -3.00651
H          5.36388        5.16473        2.68070
H          3.81413        5.95845        2.97117
H          4.53929        4.96096        4.22807
H          1.43241        4.71995       -5.35504
H          1.07800        5.86480       -4.06459
H          2.55081        4.89451       -4.00094
H         -7.83552        0.41458       -1.13350
H         -7.59167        2.06099       -0.54658
H         -7.62974        1.73505       -2.28072
