87
-129.18878369
P         -1.63357       -0.36514       -0.20500
P          1.59061        0.36042       -0.11348
C         -1.37439        0.92781       -1.43664
C          1.40402       -0.68809       -1.56359
C         -0.38676        0.83137       -2.41320
C         -0.17647        1.92438       -3.27662
C         -0.97249        3.05006       -3.15256
C         -1.95512        3.12211       -2.18950
C         -2.14744        2.05902       -1.32972
C          2.19887       -1.80320       -1.67169
C          2.06012       -2.65442       -2.74992
C          1.11487       -2.38331       -3.71591
C          0.30056       -1.26687       -3.62578
C          0.45217       -0.39101       -2.53252
Cl         1.24645        0.87207        3.07970
Cl        -1.42684       -0.91239        3.03174
H         -2.56253        4.00778       -2.09956
H         -2.90652        2.11455       -0.56751
H          2.93201       -2.01079       -0.91023
H          2.68233       -3.53061       -2.83085
H         -0.80856        3.88115       -3.81741
H          0.99595       -3.04914       -4.55381
C         -1.27239       -4.57797       -1.86777
C         -0.53985       -4.22412       -0.74288
C         -0.68734       -2.93998       -0.23415
C         -1.51471       -2.03273       -0.85486
C         -2.23555       -2.38976       -1.97001
C         -2.11687       -3.67054       -2.47713
H         -1.17490       -5.57408       -2.26454
C          0.36500       -5.19791       -0.07413
H         -0.14861       -2.65196        0.65215
H         -2.87478       -1.66209       -2.44482
H         -2.67723       -3.95716       -3.35188
C         -5.59413        0.29169        1.94946
C         -5.45514       -0.76624        1.07303
C         -4.25290       -0.96925        0.42211
C         -3.20120       -0.11213        0.64749
C         -3.33764        0.94178        1.52182
C         -4.53517        1.15515        2.19331
H         -6.53005        0.45251        2.45686
H         -6.28199       -1.43489        0.89782
H         -4.12884       -1.79580       -0.25791
H         -2.50272        1.59926        1.70070
C         -4.67681        2.30260        3.13038
C          5.13450       -1.08094        2.36158
C          5.19236        0.14775        1.73383
C          4.11977        0.58982        0.98269
C          3.00124       -0.20044        0.86047
C          2.93972       -1.42288        1.48928
C          4.00448       -1.87991        2.25564
H          5.96999       -1.42835        2.94511
H          6.07170        0.76320        1.83098
H          4.14799        1.55046        0.49545
H          2.05537       -2.03013        1.39129
C          3.93686       -3.21128        2.91713
C          1.94787        4.73924       -1.26374
C          2.77588        3.80346       -1.85233
C          2.67504        2.47149       -1.49539
C          1.75496        2.09188       -0.54668
C          0.93688        3.02250        0.05060
C          1.01127        4.36188       -0.31117
H          2.02241        5.77644       -1.54279
H          3.49535        4.10896       -2.59422
H          3.29935        1.72373       -1.95899
H          0.22731        2.70901        0.79758
C          0.12299        5.36666        0.33337
Pd        -0.07017       -0.00980        1.48787
C          0.88770        1.90047       -4.31860
C         -0.71867       -1.02268       -4.68392
H          0.45910        1.74289       -5.30903
H          1.43464        2.84418       -4.33645
H          1.61172        1.10641       -4.13312
H         -1.44791       -0.27422       -4.37211
H         -0.24820       -0.67336       -5.60380
H         -1.26605       -1.93776       -4.91430
H          1.24952       -4.69873        0.32487
H         -0.14368       -5.69429        0.75338
H          0.70466       -5.96507       -0.77138
H         -5.48985        2.13737        3.83863
H         -3.76181        2.45054        3.70593
H         -4.88568        3.22453        2.58584
H          4.62218       -3.26751        3.76398
H          2.93143       -3.41017        3.29129
H          4.19919       -4.00572        2.21697
H          0.57116        5.74691        1.25231
H         -0.06060        6.21362       -0.32926
H         -0.84400        4.92889        0.58619
