105
-153.06619689
Cl         3.44418        1.11124       -0.79754
Pd         1.28190        0.54661       -1.04524
P         -1.00855        0.13541       -1.43137
N         -0.79768       -1.54726       -1.92971
C          0.09266       -2.35160       -1.20227
C         -0.07953       -2.61522        0.18144
C          0.87405       -3.38930        0.87194
C          0.62506       -3.78171        2.30775
C          1.92475       -4.02890        3.08579
C          2.79355       -5.05308        2.34794
C          3.13108       -4.58217        0.92152
C          2.02435       -3.83246        0.21567
C          2.17737       -3.56141       -1.13846
C          1.22744       -2.86308       -1.83834
H          1.37552       -2.64967       -2.88236
H          3.06482       -3.90792       -1.64062
H          4.01575       -3.93482        0.95083
H          3.71110       -5.26195        2.91587
H          2.47604       -3.08525        3.18260
H          0.01410       -3.02493        2.81282
C         -1.25508       -2.06921        0.90014
C         -1.05392       -1.04209        1.85669
C         -2.13905       -0.61655        2.62220
C         -3.37821       -1.18013        2.45540
C         -3.59669       -2.18448        1.51854
C         -4.98480       -2.76333        1.40219
C         -5.04587       -4.08417        0.61901
C         -4.18553       -4.01098       -0.64636
C         -2.71768       -3.71720       -0.29818
C         -2.53444       -2.62395        0.72441
H         -2.23454       -4.62768        0.07565
H         -4.57014       -3.21801       -1.29978
H         -6.08455       -4.34284        0.36878
H         -5.63429       -2.02071        0.92487
H         -4.20518       -0.84194        3.05656
H         -1.98391        0.14324        3.36637
N          0.24764       -0.58789        2.13678
P          1.08790        0.69514        1.29202
C          0.44021        2.32435        1.64074
C         -0.30036        2.52689        2.77994
C         -0.85611        3.76954        3.02519
C         -0.66071        4.81758        2.13537
C          0.10400        4.59574        0.99757
C          0.66038        3.35343        0.75569
H          1.28102        3.18489       -0.11000
H          0.26104        5.40232        0.30190
C         -1.29118        6.14455        2.37821
H         -1.45153        3.93051        3.90759
H         -0.44215        1.70964        3.46775
C          2.77429        0.54750        1.89702
C          3.45452       -0.62854        1.68277
C          4.75011       -0.76634        2.14594
C          5.36922        0.27063        2.83049
C          4.66873        1.45340        3.02700
C          3.37283        1.58953        2.56401
H          2.82600        2.50595        2.71615
H          5.14650        2.26935        3.54186
C          6.77516        0.13396        3.30148
H          5.29180       -1.68011        1.97084
H          2.98148       -1.42798        1.13434
H          0.96426       -1.26055        1.87861
H         -0.56432       -1.46522       -2.91040
C         -1.06083        1.22355       -2.86711
C         -0.72751        2.54743       -2.70153
C         -0.77271        3.40883       -3.78220
C         -1.16871        2.95290       -5.03208
C         -1.51198        1.61540       -5.17622
C         -1.46523        0.75520       -4.09430
H         -1.75277       -0.27716       -4.20501
H         -1.81461        1.25082       -6.14300
C         -1.18712        3.87175       -6.20377
H         -0.49800        4.44264       -3.66026
H         -0.43717        2.90375       -1.72594
C         -2.54408        0.49353       -0.59124
C         -2.57460        1.45668        0.38655
C         -3.78010        1.80754        0.96528
C         -4.96272        1.21083        0.54814
C         -4.91121        0.25415       -0.45745
C         -3.70266       -0.09904       -1.03089
H         -3.65452       -0.82914       -1.82332
H         -5.82309       -0.21154       -0.79000
C         -6.25667        1.55655        1.19806
H         -3.80708        2.54615        1.74802
H         -1.65693        1.92454        0.69788
Cl         1.61996        0.11961       -3.23001
H          3.42142       -5.43983        0.30152
H          1.71418       -4.35559        4.11392
H          2.25741       -6.00927        2.29868
H          0.01442       -4.69252        2.31336
H         -4.27059       -4.93900       -1.22917
H         -2.16700       -3.44465       -1.20671
H         -5.39444       -2.90211        2.41096
H         -4.68440       -4.90179        1.25537
H         -0.69809        6.94868        1.94041
H         -2.28902        6.18473        1.93917
H         -1.38472        6.34650        3.44617
H          7.47449        0.45547        2.52854
H          6.95367        0.74027        4.19061
H          7.00641       -0.90152        3.55525
H         -0.22193        3.86919       -6.71196
H         -1.94876        3.57426       -6.92588
H         -1.40377        4.89616       -5.89766
H         -7.08682        1.46335        0.49647
H         -6.45380        0.89484        2.04269
H         -6.24984        2.58258        1.56854
