105
-153.06289036
Cl         0.06992        2.07653        3.03018
Pd        -0.44082        1.35313        0.96086
P         -1.10523        0.52353       -1.15119
N         -0.65385       -0.97473       -1.96356
C          0.23593       -1.98530       -1.60213
C          0.34857       -2.46827       -0.27377
C          1.28089       -3.48940        0.01156
C          1.36284       -4.03523        1.41823
C          2.58827       -4.92116        1.69554
C          2.83984       -5.89341        0.54031
C          3.07212       -5.12465       -0.76811
C          2.06064       -4.03359       -1.01345
C          1.90044       -3.56990       -2.31285
C          1.00499       -2.57514       -2.60404
H          0.90311       -2.21661       -3.61353
H          2.50185       -3.99722       -3.09732
H          4.07303       -4.67703       -0.76117
H          3.68865       -6.55538        0.76354
H          3.47239       -4.28558        1.83185
H          1.35687       -3.19606        2.12231
C         -0.66572       -2.10100        0.74459
C         -0.26987       -1.48907        1.96453
C         -1.22173       -1.34813        2.97852
C         -2.51125       -1.77775        2.80277
C         -2.91907       -2.37176        1.61473
C         -4.34338       -2.86382        1.51847
C         -4.78172       -3.25731        0.09868
C         -3.67882       -4.04587       -0.61190
C         -2.39178       -3.21366       -0.70899
C         -1.99623       -2.53209        0.57900
H         -1.56224       -3.84714       -1.04706
H         -4.01132       -4.37099       -1.60793
H         -5.00769       -2.35344       -0.48009
H         -5.01189       -2.09385        1.92341
H         -3.22823       -1.65953        3.59758
H         -0.93089       -0.87487        3.89993
N          1.02488       -0.98941        2.17178
P          1.62412        0.22791        1.04858
C          2.59961       -0.31613       -0.34103
C          2.38764        0.28231       -1.55814
C          3.18066       -0.06245       -2.63720
C          4.20114       -0.99320       -2.49277
C          4.40753       -1.57341       -1.24757
C          3.61162       -1.22888       -0.16973
H          3.77060       -1.66757        0.80258
H          5.19274       -2.30009       -1.12823
C          5.02657       -1.39785       -3.66372
H          3.00723        0.38667       -3.60001
H          1.59525        1.00481       -1.65837
C          2.59640        1.49568        1.86653
C          3.28476        1.20522        3.01985
C          4.03894        2.18879        3.63394
C          4.10552        3.46740        3.09647
C          3.41842        3.73391        1.91977
C          2.66556        2.74925        1.30595
H          2.12882        2.95349        0.39238
H          3.47554        4.71812        1.48717
C          4.93329        4.52125        3.74579
H          4.58175        1.96805        4.53713
H          3.23780        0.21035        3.43210
H          1.15903       -0.55212        3.07432
H         -0.93031       -0.89773       -2.93441
C         -0.65538        1.90319       -2.21960
C         -0.97024        3.18990       -1.85395
C         -0.61321        4.25018       -2.66448
C          0.05859        4.02986       -3.85866
C          0.37235        2.72546       -4.21455
C          0.01041        1.66806       -3.40030
H          0.26309        0.65860       -3.67746
H          0.90537        2.54310       -5.13208
C          0.47116        5.17309       -4.71917
H         -0.85318        5.25825       -2.37226
H         -1.49719        3.35925       -0.93049
C         -2.90107        0.49118       -1.10609
C         -3.57755        0.70345       -2.28406
C         -4.96098        0.67981       -2.29879
C         -5.67551        0.44321       -1.13254
C         -4.97466        0.24113        0.04788
C         -3.59220        0.24880        0.05551
H         -3.04481        0.08449        0.96981
H         -5.51899        0.08228        0.96285
C         -7.16433        0.44678       -1.13812
H         -5.49440        0.85178       -3.21800
H         -3.02013        0.89167       -3.18844
Cl        -2.33101        2.57901        0.93220
H          3.06591       -5.81548       -1.62098
H          2.46968       -5.46587        2.64288
H          1.97151       -6.55450        0.42571
H          0.44445       -4.59752        1.62457
H         -3.47424       -4.96804       -0.05360
H         -2.51009       -2.44578       -1.48224
H         -4.45559       -3.72528        2.18769
H         -5.71850       -3.83186        0.12286
H          5.15210       -0.56900       -4.36180
H          6.02052       -1.72213       -3.35239
H          4.55647       -2.22259       -4.20121
H          4.98893        4.36914        4.82458
H          5.95031        4.51296        3.35142
H          4.51302        5.51308        3.57351
H          0.52724        4.87720       -5.76768
H         -0.23989        5.99719       -4.64590
H          1.45186        5.54711       -4.42199
H         -7.54938        1.44924       -0.94656
H         -7.55553        0.11350       -2.10042
H         -7.56203       -0.21918       -0.37090
