111
-148.54960326
P         -1.81697        2.75010        0.52030
P         -0.52920       -0.13980        0.48877
C         -1.72441        1.78629        2.05944
C         -1.23208        0.49778        2.02183
C         -0.70869        4.22466        0.56391
C          0.32830        4.13531       -0.53551
C         -2.09922        2.33826        3.26789
H         -2.42876        3.36269        3.30632
C         -2.01406        1.58711        4.42740
H         -2.31143        2.01832        5.36938
C         -1.54067        0.28996        4.38139
H         -1.46899       -0.29241        5.28520
C         -1.13610       -0.25251        3.17502
H         -0.72554       -1.24893        3.12513
Pd        -1.39937        1.21886       -1.15717
Cl        -2.59808        2.40147       -2.63556
Cl        -0.84028       -0.38776       -2.63460
C         -1.68901        5.40767        0.41316
C         -3.44614        3.55786        0.15549
H         -0.15405        4.08504       -1.51396
H          0.98966        5.00511       -0.53508
H          0.94805        3.24167       -0.42860
H         -1.20478        6.21359       -0.15736
H         -1.91045        5.83790        1.40102
H         -3.87948        3.00591       -0.68946
C         -3.01941        4.97840       -0.26942
C         -4.40064        3.53345        1.33005
H         -0.23004        4.22941        1.55212
H         -3.82411        5.69078       -0.03519
H         -2.89576        5.01798       -1.36188
H         -5.37863        3.93687        1.05753
H         -4.54721        2.51732        1.70286
H         -4.02017        4.14176        2.15117
C         -0.71011       -4.64322       -0.12685
C          0.43438       -4.05588        0.47065
C          0.45018       -2.68183        0.64288
C         -0.63660       -1.91490        0.31277
C         -1.78544       -2.48914       -0.16305
C         -1.86833       -3.85798       -0.36102
O         -0.68156       -6.00564       -0.52730
C          1.66809       -4.87258        0.88590
H          1.32786       -2.18409        1.01834
H         -2.61305       -1.84451       -0.40486
C         -3.18638       -4.45837       -0.87416
C          3.80079        1.23007        0.14511
C          3.03310        1.61240        1.27539
C          1.72787        1.15910        1.36509
C          1.16813        0.41981        0.35615
C          1.86578        0.15560       -0.79232
C          3.17483        0.57607       -0.94666
O          5.20071        1.46808        0.12263
C          3.60579        2.47632        2.40965
H          1.13024        1.37281        2.23327
H          1.35608       -0.37017       -1.58053
C          3.89310        0.30319       -2.27695
C          2.38618       -4.20575        2.08157
C          1.27109       -6.29017        1.33600
C          2.64948       -4.94459       -0.29403
C         -4.39321       -3.63118       -0.37578
C         -3.18395       -4.44330       -2.41049
C         -3.38439       -5.89435       -0.35569
C         -0.21480       -6.20839       -1.85545
H          2.84500       -3.25893        1.80032
H          1.68887       -4.02074        2.89826
H          3.18266       -4.84603        2.46014
H          0.54338       -6.24576        2.14558
H          0.82801       -6.85649        0.52078
H          2.13878       -6.84645        1.68978
H          3.54233       -5.50876       -0.02577
H          2.19496       -5.42508       -1.15698
H          2.96011       -3.94505       -0.59729
H         -4.41982       -2.64209       -0.83042
H         -5.33128       -4.12426       -0.62977
H         -4.36044       -3.51150        0.70682
H         -4.11512       -4.84713       -2.80694
H         -3.06966       -3.42620       -2.78480
H         -2.36393       -5.03528       -2.80950
H         -2.61453       -6.56285       -0.73249
H         -3.34355       -5.91816        0.73276
H         -4.34882       -6.29417       -0.66794
H          0.66773       -6.84767       -1.83993
H         -0.98562       -6.70774       -2.44220
H          0.03516       -5.25378       -2.32029
C          5.97510        0.39985        0.65314
C          4.66520        3.45908        1.87848
C          2.49400        3.32777        3.06299
C          4.22007        1.56317        3.48108
C          4.94144        1.39005       -2.57576
C          4.56251       -1.07814       -2.21739
C          2.88601        0.31494       -3.45009
H          5.52774        2.93360        1.47626
H          4.24996        4.07759        1.08340
H          5.02080        4.11783        2.67036
H          1.97006        3.91770        2.31225
H          1.76542        2.71166        3.58767
H          2.91490        4.01750        3.79421
H          3.46893        0.88532        3.88601
H          5.02395        0.95799        3.06850
H          4.62745        2.14761        4.30565
H          4.48092        2.37745       -2.57461
H          5.73465        1.39141       -1.83236
H          5.40328        1.23199       -3.55001
H          5.07410       -1.30496       -3.15239
H          5.29311       -1.12772       -1.41334
H          3.82143       -1.85724       -2.04042
H          2.20173       -0.53080       -3.40403
H          3.40475        0.25404       -4.40643
H          2.29706        1.23177       -3.44631
H          6.65848        0.02873       -0.11045
H          6.56683        0.76018        1.49449
H          5.32666       -0.41167        0.98603
