111
-148.55051857
P         -1.84829        2.72562        0.43850
P         -0.52648       -0.16460        0.49809
C         -1.79514        1.77973        1.99216
C         -1.28234        0.49845        1.99420
C         -0.77460        4.22292        0.52611
C          0.28993        4.17063       -0.54881
C         -2.22156        2.34539        3.17687
H         -2.56773        3.36512        3.18571
C         -2.16742        1.61476        4.35130
H         -2.50538        2.05656        5.27450
C         -1.67341        0.32456        4.34424
H         -1.62653       -0.24213        5.25959
C         -1.21760       -0.23129        3.16244
H         -0.79305       -1.22301        3.14361
Pd        -1.36902        1.15105       -1.18770
Cl        -2.10191        2.67276       -2.66673
Cl        -0.84470       -0.46173       -2.66047
C         -1.77830        5.38506        0.36971
C         -3.47751        3.49712        0.00235
H          0.93359        5.05312       -0.51997
H          0.92412        3.28733       -0.44009
H         -0.16789        4.12544       -1.53901
H         -1.29560        6.21562       -0.16573
H         -2.04274        5.78606        1.35933
H         -3.84294        2.95296       -0.87938
C         -3.07443        4.94030       -0.36657
C         -4.49486        3.41187        1.12017
H         -0.31927        4.22455        1.52533
H         -3.90496        5.62430       -0.13838
H         -2.91765        5.01606       -1.45276
H         -5.46922        3.79023        0.80242
H         -4.62729        2.38231        1.46004
H         -4.18176        4.01041        1.97610
C         -0.71774       -4.67482       -0.06452
C          0.47104       -4.07348        0.42217
C          0.49097       -2.69796        0.58090
C         -0.62665       -1.94170        0.34186
C         -1.80839       -2.52840       -0.02612
C         -1.89820       -3.89991       -0.20208
O         -0.71487       -6.04188       -0.44998
C          1.74290       -4.87834        0.73228
H          1.39388       -2.19109        0.87509
H         -2.65991       -1.89205       -0.19675
C         -3.25346       -4.51556       -0.58363
C          3.77973        1.27918        0.17327
C          2.99720        1.66112        1.29355
C          1.70076        1.18255        1.38173
C          1.16344        0.41790        0.37953
C          1.87302        0.15334       -0.76176
C          3.17432        0.59816       -0.91353
O          5.17445        1.54652        0.15513
C          3.54501        2.55474        2.41712
H          1.09184        1.39772        2.24176
H          1.37720       -0.38978       -1.54743
C          3.90616        0.32540       -2.23642
C          2.60954       -4.96572       -0.53325
C          2.56720       -4.18995        1.84431
C          1.39682       -6.29005        1.23928
C         -4.41526       -3.69036        0.01505
C         -3.39403       -4.52024       -2.11354
C         -3.39125       -5.94609       -0.03159
C         -0.37373       -6.25797       -1.81372
H          2.88396       -3.97006       -0.88061
H          3.52710       -5.52120       -0.34097
H          2.07906       -5.46264       -1.34174
H          3.39896       -4.82135        2.15602
H          2.99290       -3.24628        1.50604
H          1.94917       -3.99425        2.72020
H          0.74773       -6.23551        2.11259
H          0.88233       -6.87054        0.47767
H          2.29654       -6.83763        1.51884
H         -4.49187       -2.70722       -0.44677
H         -5.36896       -4.19294       -0.14461
H         -4.28287       -3.55684        1.08841
H         -3.32423       -3.50725       -2.50926
H         -2.60942       -5.11083       -2.58007
H         -4.35437       -4.93646       -2.41664
H         -3.24911       -5.95567        1.04853
H         -4.37745       -6.35618       -0.24772
H         -2.65466       -6.61430       -0.47030
H         -1.19366       -6.76687       -2.32019
H         -0.17282       -5.30780       -2.31034
H          0.50927       -6.89396       -1.87373
C          5.96868        0.50266        0.70441
C          4.58522        3.55234        1.87556
C          2.41176        3.39161        3.05199
C          4.17394        1.67215        3.50548
C          2.90520        0.29430       -3.41447
C          4.92724        1.43525       -2.54490
C          4.61128       -1.03683       -2.15457
H          4.92147        4.23176        2.65837
H          5.46160        3.03988        1.48665
H          4.16079        4.14831        1.06820
H          2.81381        4.10085        3.77511
H          1.87962        3.95916        2.28990
H          1.69362        2.76774        3.58184
H          4.56591        2.27831        4.32181
H          3.43550        0.98547        3.91878
H          4.99177        1.07718        3.10570
H          3.43031        0.23429       -4.36737
H          2.24367       -0.56889       -3.35998
H          2.29184        1.19492       -3.42617
H          5.39869        1.27582       -3.51431
H          4.44088        2.41006       -2.56017
H          5.71579        1.46783       -1.79722
H          5.33966       -1.05593       -1.34728
H          5.13244       -1.26346       -3.08432
H          3.89011       -1.83237       -1.96921
H          6.54373        0.88573        1.54726
H          5.33646       -0.32047        1.03997
H          6.66801        0.14007       -0.04878
