115
-277.93505858
P         -1.71915       -0.06006       -0.14840
P          1.75350       -0.76629        0.57298
C         -1.50800        1.71466       -0.42659
C         -2.62563        2.51580       -0.34348
H         -3.60438        2.06784       -0.26525
C         -2.47923        3.88370       -0.24679
H         -3.33302        4.51007       -0.04474
C         -1.21710        4.45523       -0.26800
C         -0.11511        3.65223       -0.51515
H          0.86044        4.11689       -0.56271
C         -0.26124        2.28182       -0.58821
H          0.60862        1.65821       -0.70380
C         -3.15208       -0.66106       -1.05934
C         -3.66001        0.02017       -2.14162
H         -3.18371        0.92794       -2.47531
C         -4.76381       -0.47282       -2.80824
H         -5.18446        0.04941       -3.65321
C         -5.35813       -1.64966       -2.39655
C         -4.83863       -2.32707       -1.31002
H         -5.31803       -3.23778       -0.98843
C         -3.73593       -1.83502       -0.64416
H         -3.33456       -2.36049        0.20722
C         -1.82451       -0.63007        1.58563
C         -1.22614       -1.86541        1.76663
H         -0.72903       -2.33748        0.93541
C         -1.09945       -2.43446        3.03440
C         -1.80644       -1.84540        4.07644
H         -1.75883       -2.28329        5.05951
C         -2.42361       -0.62320        3.90128
H         -2.85758       -0.12449        4.75123
C         -2.34260        0.06025        2.68867
C          1.21421       -0.32436        2.26372
C          0.56321        0.89254        2.27277
H          0.39633        1.40242        1.34221
C         -0.04482        1.39152        3.42214
C          0.21533        0.74123        4.62225
H         -0.20957        1.12520        5.53457
C          0.87098       -0.47374        4.62796
H          0.95306       -1.02393        5.55007
C          1.27489       -1.08470        3.44064
C         -2.49737        1.56337        2.72778
H         -3.38264        1.81830        3.32073
H         -2.73007        1.91361        1.72544
C         -1.22969        2.31048        3.28690
H         -0.95577        3.15757        2.64854
H         -1.44573        2.75768        4.26327
C          0.05216       -3.35877        3.33854
H          0.11467       -4.13932        2.57293
H         -0.16128       -3.90110        4.26639
C          1.41761       -2.58991        3.45979
H          1.94731       -2.89129        4.37132
H          2.08908       -2.90142        2.66444
C          2.68839       -2.29635        0.65296
C          2.08309       -3.48276        0.29604
C          3.88834       -2.29565        1.33330
C          2.62453       -4.67851        0.72105
C          4.41776       -3.49342        1.77497
C          3.75165       -4.68540        1.52654
C          2.81686        0.52923       -0.08590
C          3.09882        0.55806       -1.43165
C          3.21423        1.56581        0.72845
C          3.72120        1.65721       -1.98038
H          2.78835       -0.25943       -2.06097
C          3.84181        2.66576        0.18092
H          2.98855        1.54038        1.78200
C          4.07488        2.72857       -1.18010
H          3.87745        1.72418       -3.04491
H          4.09082        3.52392        0.78615
Pd         0.18620       -0.98855       -1.16292
Cl        -1.08977       -0.95074       -3.01797
Cl         1.74512       -2.11595       -2.33359
H          5.28130       -3.50234        2.42007
H          4.34370       -1.35889        1.61531
H          2.10899       -5.61109        0.55107
H          1.14713       -3.47520       -0.23856
C         -2.17070        6.79200        0.00301
C         -0.99437        5.82475        0.32561
C         -0.80884        5.59467        1.85834
F         -1.84313        8.02959        0.40651
F         -2.36168        6.77386       -1.32464
F         -3.28341        6.37752        0.62441
F          0.12750        6.36776       -0.15292
F          0.27101        4.81728        2.02167
F         -0.64256        6.77017        2.47934
F         -1.87957        4.94613        2.33553
C         -6.51292       -3.66828       -3.35943
C         -6.60833       -2.13837       -3.08294
C         -7.83294       -1.77253       -2.19586
F         -6.52545       -4.33682       -2.19787
F         -7.54681       -4.04265       -4.12864
F         -5.35569       -3.89324       -3.99953
F         -6.75746       -1.52249       -4.25891
F         -7.67514       -2.31582       -0.97991
F         -7.86754       -0.43544       -2.09217
F         -8.95602       -2.22300       -2.77472
C          5.27212        3.85878       -3.10407
C          4.47200        4.05073       -1.78252
C          3.15366        4.85401       -1.98802
F          6.27502        3.00483       -2.85114
F          4.46922        3.34697       -4.04725
F          5.76254        5.04462       -3.49744
F          5.24396        4.73088       -0.93088
F          2.63982        5.08464       -0.77188
F          3.41559        6.00842       -2.61815
F          2.29051        4.10607       -2.69072
C          5.45872       -6.02471        2.84308
C          3.97334       -5.89778        2.39701
C          2.98832       -5.74504        3.60094
F          5.77874       -5.00257        3.64844
F          5.62727       -7.19405        3.47971
F          6.21937       -5.98549        1.73909
F          3.64434       -7.00834        1.73279
F          1.74372       -5.72672        3.10325
F          3.14129       -6.77338        4.44571
F          3.22421       -4.57923        4.21688
