59
-75.80697835
Cl         1.64895        0.55797        2.32424
P          1.61309       -0.10298       -0.86353
P         -1.58201       -0.14730       -0.78009
C          0.59407        0.24953       -2.36154
H          0.33534        1.31127       -2.37067
H          1.19630        0.04947       -3.25347
C         -0.64231       -0.60019       -2.29993
H         -0.38273       -1.66078       -2.24131
H         -1.29159       -0.46180       -3.17029
C          2.61378       -1.63131       -1.21298
H          2.42525       -1.83549       -2.27571
C          3.00061        1.10742       -0.63636
H          3.11708        1.22902        0.44744
C         -3.02261       -1.26674       -0.47838
H         -3.24513       -1.19152        0.59334
C         -2.52102        1.42250       -1.09099
H         -2.13625        1.83197       -2.03275
C          4.07251       -1.17307       -1.03577
H          4.42481       -1.45149       -0.03539
H          4.72988       -1.71187       -1.73476
C          4.21425        0.36107       -1.21565
H          4.29928        0.60038       -2.28470
H          5.14468        0.72809       -0.75595
C         -4.12940       -0.58222       -1.29736
H         -4.05804       -0.92422       -2.33968
H         -5.12203       -0.90519       -0.94684
C         -3.99063        0.96498       -1.24067
H         -4.56432        1.34211       -0.38337
H         -4.45082        1.43052       -2.12469
C          2.20943       -2.84612       -0.37906
H          2.77402       -3.72166       -0.72879
H          1.15969       -3.08126       -0.59494
C          2.74092        2.46333       -1.28196
H          3.66913        3.05139       -1.26429
H          2.51620        2.31425       -2.34591
C         -2.74629       -2.71714       -0.85030
H         -3.69127       -3.27803       -0.85059
H         -2.38748       -2.75798       -1.88663
C         -2.30729        2.41183        0.04903
H         -2.71783        1.97912        0.97142
H         -1.23300        2.51836        0.24426
C          2.40265       -2.68862        1.12284
H          1.98940       -3.53460        1.67712
H          1.91697       -1.78880        1.49759
H          3.45678       -2.61638        1.39361
C          1.62409        3.23872       -0.60328
H          1.85050        3.41781        0.44953
H          0.68672        2.68506       -0.63730
H          1.44995        4.20895       -1.07401
C         -1.74926       -3.37429        0.09083
H         -1.49626       -4.39109       -0.21777
H         -2.14183       -3.42564        1.10825
H         -0.82386       -2.80065        0.14128
C         -2.92427        3.77634       -0.22001
H         -2.50013        4.22914       -1.11827
H         -4.00196        3.70291       -0.37570
H         -2.75912        4.47036        0.60724
Cl        -1.58095       -0.02799        2.39729
Pd         0.04923        0.00020        0.85632
