105
-153.06638023
Cl        -0.04223        1.82940        3.10394
Pd        -0.46680        1.28886        0.95888
P         -1.13232        0.50047       -1.16137
N         -0.77027       -1.02664       -1.96181
C          0.17222       -1.99797       -1.62406
C          0.32329       -2.47875       -0.29884
C          1.29897       -3.46065       -0.02874
C          1.43361       -3.98864        1.37991
C          2.27085       -5.27090        1.50587
C          3.53781       -5.18348        0.65039
C          3.17730       -4.98641       -0.82939
C          2.10168       -3.95484       -1.06092
C          1.89955       -3.50181       -2.35852
C          0.95137       -2.55331       -2.63816
H          0.81735       -2.20172       -3.64628
H          2.51024       -3.90065       -3.15085
H          4.06887       -4.70227       -1.40308
H          4.14909       -4.33880        0.99236
H          2.52375       -5.47143        2.55660
H          1.87789       -3.20183        2.00018
C         -0.67021       -2.12913        0.74476
C         -0.24019       -1.54613        1.96782
C         -1.16811       -1.41270        3.00491
C         -2.46901       -1.81282        2.84512
C         -2.91096       -2.37501        1.65382
C         -4.34900       -2.82924        1.57528
C         -4.81740       -3.20803        0.16115
C         -3.74024       -4.01274       -0.57048
C         -2.44281       -3.19966       -0.68728
C         -2.01043       -2.53743        0.59867
H         -1.62985       -3.84117       -1.04966
H         -4.09500       -4.33023       -1.56128
H         -5.03626       -2.29726       -0.40970
H         -4.99095       -2.04215        1.99028
H         -3.16882       -1.69471        3.65511
H         -0.85161       -0.95972        3.92804
N          1.05805       -1.04536        2.14546
P          1.60988        0.18625        1.01107
C          2.61994       -0.35002       -0.35690
C          2.39643        0.20542       -1.59185
C          3.21153       -0.13869       -2.65443
C          4.25671       -1.03618       -2.47860
C          4.48525       -1.55873       -1.21202
C          3.66779       -1.21376       -0.15061
H          3.84017       -1.61139        0.83693
H          5.30547       -2.23978       -1.06257
C          5.13789       -1.40577       -3.62009
H          3.03669        0.28564       -3.62816
H          1.57991        0.89585       -1.71763
C          2.53068        1.49743        1.82238
C          3.24866        1.23617        2.96443
C          3.95794        2.25414        3.57592
C          3.96005        3.53519        3.04019
C          3.22981        3.77695        1.88436
C          2.52194        2.75803        1.27315
H          1.95776        2.94186        0.37184
H          3.21533        4.76952        1.46760
C          4.69635        4.63893        3.71624
H          4.51295        2.05941        4.47768
H          3.25676        0.23849        3.37244
H          1.21935       -0.62248        3.05034
H         -1.05164       -0.93975       -2.93026
C         -0.61911        1.85354       -2.23309
C         -0.84309        3.15575       -1.85551
C         -0.43060        4.19533       -2.66650
C          0.20541        3.93865       -3.87307
C          0.42631        2.61876       -4.24118
C          0.00965        1.58224       -3.42627
H          0.19358        0.56014       -3.71128
H          0.93105        2.40784       -5.16855
C          0.67941        5.05630       -4.73548
H         -0.59924        5.21505       -2.36504
H         -1.34497        3.35334       -0.92360
C         -2.92657        0.55127       -1.09013
C         -3.61450        0.84940       -2.24241
C         -4.99763        0.88432       -2.22962
C         -5.69989        0.61846       -1.06206
C         -4.98673        0.32869        0.09242
C         -3.60533        0.28116        0.07269
H         -3.04924        0.05121        0.96705
H         -5.52072        0.14524        1.00890
C         -7.18712        0.68312       -1.03577
H         -5.54008        1.12436       -3.12804
H         -3.06622        1.05787       -3.14782
Cl        -2.26334        2.64908        0.93562
H          2.84435       -5.93905       -1.25840
H          1.67169       -6.12994        1.17873
H          4.16451       -6.07617        0.78705
H          0.42999       -4.15489        1.79125
H         -3.54025       -4.93914       -0.01758
H         -2.56801       -2.42233       -1.44965
H         -4.47528       -3.68856        2.24474
H         -5.76383       -3.76581        0.19783
H          5.52699       -2.41841       -3.50435
H          4.59404       -1.36722       -4.56505
H          5.98661       -0.72424       -3.69127
H          5.04251        5.38090        2.99533
H          4.05520        5.14524        4.43905
H          5.57083        4.26150        4.24811
H          1.70736        5.32597       -4.48937
H          0.64692        4.78031       -5.79041
H          0.05855        5.94402       -4.60677
H         -7.60949        0.45260       -2.01481
H         -7.59871       -0.03145       -0.32146
H         -7.52584        1.67948       -0.74875
