111
-148.55494596
P         -2.40394        2.33434        0.54883
P          0.03174        0.30836        0.42536
C         -1.42403        2.01921        2.03574
C         -0.39479        1.10520        1.98789
C         -2.58301        4.14275        0.21207
C         -1.74217        4.54918       -0.97866
C         -1.73240        2.65310        3.22210
H         -2.53623        3.37104        3.24794
C         -1.01464        2.35522        4.36763
H         -1.25501        2.84758        5.29575
C          0.00020        1.41849        4.32469
H          0.55154        1.17741        5.21864
C          0.30838        0.78882        3.13202
H          1.08744        0.04376        3.08689
Pd        -1.54664        1.00990       -1.13871
Cl        -3.28168        1.74229       -2.36090
Cl        -0.68851       -0.44386       -2.61585
C         -4.10050        4.31076        0.00980
C         -4.18539        1.86311        0.75922
H         -2.04322        3.99565       -1.87021
H         -1.84891        5.61409       -1.19862
H         -0.68311        4.34157       -0.80642
H         -4.32212        4.23772       -1.06389
H         -4.41814        5.32123        0.30883
H         -4.45440        1.30108       -0.14494
C         -4.90607        3.22407        0.77646
C         -4.41089        1.01926        1.99675
H         -2.25416        4.66307        1.12111
H         -5.04365        3.53874        1.81999
H         -5.92119        3.12395        0.36321
H         -3.79828        0.11569        1.98100
H         -4.14793        1.57317        2.89899
H         -5.45693        0.71835        2.08945
C         -0.84044       -4.14187        0.79468
C         -1.90365       -3.21263        0.65815
C         -1.59051       -1.86581        0.58335
C         -0.28703       -1.44575        0.54596
C          0.74542       -2.34611        0.56352
C          0.50240       -3.70667        0.65308
O         -1.11768       -5.49824        1.11160
C         -3.37923       -3.63671        0.59558
H         -2.36725       -1.12173        0.54833
H          1.75110       -1.96740        0.51109
C          1.68842       -4.68336        0.62369
C          4.33227        1.11088       -0.89711
C          3.42824        0.43783       -1.75631
C          2.12807        0.25292       -1.32092
C          1.72617        0.64522       -0.07149
C          2.62262        1.21656        0.79450
C          3.94186        1.42687        0.42905
O          5.61483        1.49285       -1.37351
C          3.82561       -0.06168       -3.15442
H          1.39161       -0.18983       -1.96667
H          2.27602        1.50804        1.76874
C          4.92127        2.00396        1.46415
C         -3.97253       -3.62761        2.01221
C         -4.18643       -2.65700       -0.28791
C         -3.52946       -5.03321       -0.03462
C          2.84792       -4.10840       -0.22119
C          2.19108       -4.91485        2.05651
C          1.28757       -6.02303       -0.02045
C         -1.20029       -5.75931        2.50696
H         -3.44497       -4.31987        2.66435
H         -3.89912       -2.63443        2.45464
H         -5.02392       -3.91357        1.99698
H         -5.19959       -3.02473       -0.44817
H         -4.27339       -1.67409        0.17191
H         -3.71518       -2.53718       -1.26315
H         -3.06906       -5.05928       -1.02172
H         -3.05357       -5.79719        0.57499
H         -4.57943       -5.30411       -0.14229
H          3.64061       -4.84613       -0.34352
H          2.49755       -3.82672       -1.21344
H          3.29582       -3.23318        0.24705
H          1.41067       -5.34001        2.68329
H          3.04059       -5.59726        2.06701
H          2.50639       -3.97571        2.51062
H          2.14512       -6.69024       -0.10363
H          0.52915       -6.53442        0.56716
H          0.88407       -5.86236       -1.01963
H         -0.46538       -6.51622        2.78066
H         -1.01285       -4.84803        3.07629
H         -2.19123       -6.14217        2.75025
C          5.65691        2.78883       -1.95763
C          5.29740       -0.51150       -3.18371
C          2.97332       -1.28530       -3.56217
C          3.59008        1.05779       -4.17965
C          6.34645        1.46663        1.23897
C          4.91218        3.53742        1.37488
C          4.50868        1.59222        2.89619
H          5.97035        0.31817       -2.98230
H          5.47868       -1.27886       -2.43180
H          5.56238       -0.92170       -4.15788
H          3.33746       -1.71734       -4.49393
H          3.01535       -2.05857       -2.79636
H          1.93029       -1.01640       -3.72192
H          4.18550        1.93740       -3.94798
H          3.85263        0.72853       -5.18465
H          2.54270        1.35882       -4.18593
H          6.74412        1.78501        0.27868
H          7.02675        1.82404        2.01159
H          6.35316        0.37732        1.25847
H          3.91279        3.92819        1.56493
H          5.59068        3.97509        2.10671
H          5.21781        3.87731        0.38840
H          4.38148        0.51227        2.96765
H          3.57844        2.06901        3.20158
H          5.26999        1.88764        3.61785
H          6.36845        3.41147       -1.41559
H          5.99190        2.71282       -2.99195
H          4.67014        3.25249       -1.92744
