59
-75.79771261
Cl         1.62615        0.35163        2.39899
P          1.58316       -0.13356       -0.78402
P         -1.58539       -0.00099       -0.78808
C          0.65739       -0.56630       -2.32277
H          1.28796       -0.35018       -3.18990
H          0.51344       -1.64897       -2.29968
C         -0.66596        0.15137       -2.38338
H         -1.30031       -0.21390       -3.19606
H         -0.52253        1.22096       -2.55282
C          2.92786       -1.35709       -0.45105
H          3.13051       -1.85290       -1.40828
C          2.57188        1.43362       -0.82812
H          2.29165        1.99140        0.07400
C         -2.59749       -1.53756       -0.56537
H         -2.32889       -1.93419        0.42156
C         -2.91095        1.28154       -0.66853
H         -3.10380        1.61333       -1.69612
C          4.11117       -0.46133       -0.04470
H          4.10285       -0.34054        1.04754
H          5.06589       -0.95606       -0.28043
C          4.02579        0.93581       -0.71917
H          4.45662        0.87885       -1.72821
H          4.64184        1.66900       -0.17676
C         -4.04377       -1.00729       -0.55284
H         -4.46872       -1.11492       -1.56024
H         -4.67400       -1.62921        0.10086
C         -4.10947        0.48480       -0.12393
H         -4.10667        0.54977        0.97306
H         -5.05554        0.94679       -0.44531
C          2.53209       -2.38674        0.60107
H          2.28915       -1.86364        1.53477
H          3.40584       -3.00908        0.83966
C          2.29275        2.27183       -2.06983
H          2.55359        1.68512       -2.96016
H          1.21393        2.45467       -2.14962
C         -2.32500       -2.58226       -1.64077
H         -2.57590       -2.15675       -2.62104
H         -1.24802       -2.78824       -1.68165
C         -2.50042        2.46682        0.19763
H         -3.36213        3.13805        0.31829
H         -2.27483        2.10543        1.20888
C          1.36534       -3.26416        0.17430
H          0.46906       -2.66984       -0.00771
H          1.11249       -4.00790        0.93332
H          1.59031       -3.79966       -0.74991
C          3.04125        3.59644       -2.07186
H          2.82145        4.19037       -2.96201
H          4.12135        3.44294       -2.03949
H          2.77615        4.19910       -1.20103
C         -3.08981       -3.87816       -1.41600
H         -2.83540       -4.32263       -0.45187
H         -2.87412       -4.62084       -2.18758
H         -4.16803       -3.70880       -1.41713
C         -1.31184        3.23490       -0.35931
H         -0.42784        2.59965       -0.42720
H         -1.51803        3.60962       -1.36360
H         -1.04816        4.09163        0.26494
Cl        -1.61827        0.11590        2.43256
Pd         0.00178        0.04166        0.88160
