105
-153.06107177
Cl         0.04615        1.94215        3.09948
Pd        -0.41819        1.35953        0.97717
P         -1.07261        0.55742       -1.14580
N         -0.54420       -0.90357       -1.97746
C          0.27755       -1.96518       -1.60452
C          0.33987       -2.46862       -0.28134
C          1.22515       -3.52929        0.01025
C          1.26222       -4.08691        1.41453
C          2.44099       -5.03045        1.70449
C          2.67174       -6.00039        0.54301
C          2.96460       -5.22757       -0.75063
C          2.00211       -4.09523       -1.00486
C          1.88628       -3.61306       -2.30192
C          1.04018       -2.57753       -2.59776
H          0.97608       -2.20201       -3.60422
H          2.48467       -4.05676       -3.07961
H          3.98165       -4.81922       -0.71537
H          3.48510       -6.70276        0.77467
H          3.34989       -4.43689        1.86515
H          1.28543       -3.25196        2.12351
C         -0.66475       -2.06656        0.73505
C         -0.24017       -1.47060        1.95412
C         -1.16856       -1.33517        2.99017
C         -2.46081       -1.76548        2.84128
C         -2.89570       -2.35046        1.65842
C         -4.31730       -2.85602        1.60085
C         -4.60851       -3.79189        0.41758
C         -3.95260       -3.27523       -0.86521
C         -2.43101       -3.15324       -0.69229
C         -2.00350       -2.48324        0.59151
H         -1.97042       -4.14720       -0.73627
H         -4.37001       -2.29241       -1.11627
H         -5.69147       -3.91718        0.27630
H         -4.99462       -1.99606        1.56712
H         -3.15891       -1.65477        3.65379
H         -0.85603       -0.87016        3.90863
N          1.06484       -0.99003        2.14138
P          1.64738        0.23695        1.01900
C          2.62340       -0.30911       -0.36865
C          2.45008        0.32435       -1.57419
C          3.23913       -0.03168       -2.65270
C          4.21645       -1.00930       -2.51866
C          4.38324       -1.62572       -1.28496
C          3.59133       -1.27019       -0.20780
H          3.71713       -1.73950        0.75502
H          5.13288       -2.39042       -1.17471
C          5.03678       -1.42397       -3.68970
H          3.09608        0.44527       -3.60709
H          1.68982        1.08208       -1.66632
C          2.60268        1.51791        1.83741
C          3.31844        1.22645        2.97359
C          4.05483        2.21988        3.59338
C          4.07583        3.50948        3.07903
C          3.36168        3.77750        1.91892
C          2.62664        2.78305        1.29943
H          2.06869        2.98895        0.39910
H          3.38322        4.77071        1.50400
C          4.88341        4.57470        3.73523
H          4.61866        1.99842        4.48342
H          3.30557        0.22360        3.36877
H          1.22581       -0.57043        3.04794
H         -0.81299       -0.82243       -2.95028
C         -0.65087        1.95980       -2.19933
C         -1.01681        3.23449       -1.83923
C         -0.68253        4.30828       -2.64152
C          0.01954        4.11451       -3.82268
C          0.38686        2.82292       -4.17304
C          0.04670        1.75206       -3.36703
H          0.34116        0.75344       -3.64160
H          0.94418        2.66124       -5.07998
C          0.40807        5.27272       -4.67425
H         -0.96334        5.30664       -2.35235
H         -1.56263        3.38551       -0.92398
C         -2.86655        0.46946       -1.12365
C         -3.52059        0.59071       -2.32712
C         -4.90219        0.52599       -2.37155
C         -5.63830        0.35468       -1.20742
C         -4.95979        0.22832       -0.00372
C         -3.57847        0.27345        0.03462
H         -3.04920        0.16842        0.96823
H         -5.52218        0.10406        0.90557
C         -7.12371        0.26353       -1.25159
H         -5.41705        0.61310       -3.31300
H         -2.94695        0.73753       -3.22915
Cl        -2.30028        2.59519        0.93376
H          2.95138       -5.90819       -1.61160
H          2.27957       -5.57965        2.64286
H          1.77683       -6.61986        0.40313
H          0.31583       -4.60686        1.60474
H         -4.19854       -3.92424       -1.71759
H         -2.01256       -2.59740       -1.53844
H         -4.54532       -3.36475        2.54638
H         -4.22327       -4.79459        0.64201
H          5.19974       -0.58828       -4.37172
H          6.01501       -1.79074       -3.37573
H          4.54108       -2.22088       -4.24584
H          4.95133        4.41023        4.81150
H          5.89710        4.59588        3.33286
H          4.43820        5.55828        3.57909
H         -0.32312        6.07888       -4.59971
H          1.37794        5.66870       -4.37010
H          0.47627        4.98439       -5.72416
H         -7.44494       -0.77476       -1.34578
H         -7.56953        0.67298       -0.34404
H         -7.52800        0.81969       -2.09847
