64
-97.20877598
Cl        -1.55898       -1.46966       -2.59098
Cl         1.64065       -1.42905       -2.88127
P          1.94534       -0.64060        0.23804
C          2.18939       -2.32717        0.96254
C          3.71715       -0.18554       -0.08608
P         -1.27530       -0.13198        0.40596
C          1.27082        0.54801        1.45109
C         -0.15223        0.81396        1.50244
C         -0.38138        1.90546        2.43866
C          0.91551        2.34633        2.92122
C          1.93607        1.50330        2.32293
H         -1.34387        2.35439        2.68740
H          1.09165        3.15650        3.63239
Pd         0.17289       -0.98377       -1.25149
H          3.01328        1.57849        2.48411
C         -4.86554        2.44444       -0.70908
C         -4.16476        1.78551       -1.69939
C         -3.08788        0.98720       -1.36393
C         -2.70479        0.86246       -0.04783
C         -3.41636        1.49916        0.94369
C         -4.49796        2.29632        0.61369
H         -5.70709        3.06626       -0.96777
H         -4.46100        1.88540       -2.73076
H         -2.55943        0.43357       -2.12118
H         -3.13449        1.35638        1.97416
H         -5.05292        2.79905        1.38871
C         -2.75488       -3.92420        2.41987
C         -2.37504       -2.84095        3.18870
C         -1.92903       -1.68355        2.57586
C         -1.86438       -1.62226        1.20312
C         -2.24660       -2.69552        0.43328
C         -2.69303       -3.85363        1.04171
H         -3.10235       -4.82626        2.89665
H         -2.42505       -2.89632        4.26376
H         -1.62581       -0.82895        3.15968
H         -2.19115       -2.61607       -0.64065
H         -2.99155       -4.69730        0.44139
C          4.05533       -0.17573       -1.56024
H          3.86911        0.81215        0.34624
C          4.49609       -1.25483        0.70487
H          4.70932       -0.88901        1.72000
C          3.69939       -2.58369        0.79360
H          5.47700       -1.42047        0.23593
C          1.72719       -2.34976        2.40326
H          1.59765       -3.02652        0.35604
H          4.06406       -3.20009        1.62791
H          3.87931       -3.17734       -0.11448
H          0.66964       -2.09138        2.48485
H          1.86996       -3.33381        2.85600
H          2.28786       -1.62517        2.99719
H          3.88741       -1.16158       -1.99633
H          3.43904        0.53589       -2.11197
H          5.10227        0.08541       -1.72945
Fe         0.82813        2.43916        0.86633
C         -0.01106        4.03346       -0.13402
C         -0.16046        2.80799       -0.89699
C          1.16144        2.26678       -1.14325
C          2.12899        3.15436       -0.52553
C          1.40753        4.25940        0.08305
H         -0.82358        4.68507        0.19532
H         -1.10272        2.38014       -1.23962
H          1.38586        1.37564       -1.73249
H          3.21525        3.04321       -0.56186
H          1.85185        5.10673        0.60995
