111
-148.55077357
P         -2.52194        2.11430       -0.36149
P          0.03086        0.43835        0.51872
C         -1.82700        2.32859        1.29717
C         -0.73042        1.58779        1.68167
C         -2.77226        3.74502       -1.20012
C         -1.93115        3.83628       -2.45481
C         -2.38913        3.23479        2.17352
H         -3.23058        3.82929        1.85734
C         -1.86371        3.38133        3.44547
H         -2.30436        4.08623        4.13147
C         -0.77562        2.62503        3.83548
H         -0.36668        2.73685        4.82620
C         -0.20596        1.72808        2.94963
H          0.64757        1.13745        3.24011
Pd        -1.16617        0.60940       -1.47207
Cl        -2.66195        0.63351       -3.14052
Cl         0.30077       -0.84140       -2.35326
C         -4.29424        3.79030       -1.45805
C         -4.25653        1.46724       -0.38515
H         -0.86899        3.70650       -2.23253
H         -2.21604        3.05857       -3.16550
H         -2.05734        4.80042       -2.95320
H         -4.48670        4.28309       -2.42194
H         -4.78356        4.42225       -0.70256
H         -4.19871        0.42529       -0.72850
C         -4.93299        2.37250       -1.43421
C         -4.90359        1.54850        0.98200
H         -2.46912        4.51715       -0.47988
H         -6.01182        2.43445       -1.22858
H         -4.84457        1.91660       -2.43135
H         -4.28725        1.07003        1.74559
H         -5.04163        2.58884        1.28067
H         -5.88798        1.07438        0.98967
C         -1.15780       -3.91438        1.07696
C          0.21512       -3.58261        0.94835
C          0.55525       -2.24845        0.80111
C         -0.39693       -1.26525        0.86366
C         -1.71352       -1.57185        1.09418
C         -2.12261       -2.88776        1.24299
O         -1.57092       -5.27059        0.99099
C          1.32600       -4.64335        0.90776
H          1.57145       -1.96094        0.59642
H         -2.42573       -0.76490        1.11918
C         -3.60513       -3.18626        1.51408
C          4.49579        1.22760        0.00929
C          3.60206        1.46397       -1.06560
C          2.25141        1.24370       -0.85460
C          1.79180        0.71803        0.32467
C          2.66658        0.37946        1.32530
C          4.02827        0.59786        1.19063
O          5.84992        1.64648       -0.08424
C          4.06842        1.95114       -2.44700
H          1.53496        1.47334       -1.62392
H          2.26857       -0.06133        2.22217
C          4.97553        0.19380        2.33196
C          1.57502       -5.06065       -0.54965
C          2.64019       -4.07470        1.48809
C          0.95700       -5.87170        1.75921
C         -3.77476       -4.47360        2.34120
C         -4.25009       -2.04330        2.32766
C         -4.34835       -3.31178        0.17496
C         -1.85192       -5.70528       -0.33393
H          1.86382       -4.19962       -1.15204
H          2.37214       -5.80085       -0.61345
H          0.68118       -5.48968       -0.99574
H          3.39374       -4.85659        1.57995
H          3.06041       -3.30030        0.84823
H          2.47305       -3.65279        2.47877
H          1.77387       -6.59261        1.78165
H          0.73762       -5.57560        2.78448
H          0.08104       -6.38042        1.36510
H         -4.82218       -4.64558        2.58784
H         -3.41858       -5.34525        1.79822
H         -3.21322       -4.40777        3.27248
H         -3.66766       -1.82490        3.22237
H         -4.32951       -1.13385        1.73683
H         -5.25945       -2.31026        2.64004
H         -4.25605       -2.39327       -0.40434
H         -3.94392       -4.12225       -0.42639
H         -5.40877       -3.50627        0.33317
H         -1.20237       -6.54182       -0.59091
H         -2.88520       -6.04620       -0.39609
H         -1.69412       -4.89075       -1.04215
C          6.07230        2.99118        0.32157
C          3.13647        1.40864       -3.55575
C          4.03493        3.48625       -2.48604
C          5.48514        1.44053       -2.76673
C          4.39869       -0.99187        3.13650
C          6.33970       -0.26129        1.78185
C          5.15849        1.38468        3.28491
H          3.53906        1.63089       -4.54364
H          3.02585        0.32765       -3.47425
H          2.14558        1.85743       -3.50698
H          4.69205        3.91505       -1.73332
H          4.35061        3.85875       -3.46023
H          3.02728        3.85442       -2.29435
H          6.21878        1.84189       -2.07235
H          5.52413        0.35368       -2.70170
H          5.78921        1.73148       -3.77189
H          4.15931       -1.82427        2.47684
H          5.11984       -1.34700        3.87237
H          3.49839       -0.71153        3.68122
H          6.85334        0.55080        1.27319
H          6.98928       -0.61017        2.58423
H          6.21345       -1.07563        1.06912
H          5.58761        2.24003        2.76912
H          5.81846        1.12510        4.11227
H          4.20045        1.69518        3.70133
H          5.14153        3.44427        0.66511
H          6.80611        3.01172        1.12719
H          6.47032        3.56605       -0.51432
