105
-153.06641855
Cl        -0.06126        1.90282        3.11602
Pd        -0.48762        1.28745        0.99107
P         -1.10784        0.49355       -1.13885
N         -0.74399       -1.01568       -1.97092
C          0.18042       -2.00493       -1.63886
C          0.32479       -2.49348       -0.31609
C          1.28978       -3.48650       -0.04908
C          1.41836       -4.01855        1.35872
C          2.25203       -5.30324        1.48543
C          3.51657       -5.22384        0.62548
C          3.15180       -5.02879       -0.85349
C          2.08714       -3.98571       -1.08282
C          1.89009       -3.52601       -2.37889
C          0.95327       -2.56517       -2.65508
H          0.82414       -2.20739       -3.66166
H          2.49541       -3.92989       -3.17272
H          4.04387       -4.75705       -1.43242
H          4.13295       -4.38119        0.96323
H          2.50791       -5.50123        2.53591
H          1.86120       -3.23384        1.98278
C         -0.66639       -2.14097        0.72879
C         -0.23262       -1.55583        1.94950
C         -1.15446       -1.43048        2.99312
C         -2.45389       -1.83858        2.84002
C         -2.90043       -2.39866        1.64916
C         -4.33713       -2.85733        1.57558
C         -4.81285       -3.22289        0.16037
C         -3.74005       -4.02122       -0.58468
C         -2.44138       -3.20969       -0.69975
C         -2.00561       -2.55348        0.58810
H         -1.63006       -3.85143       -1.06540
H         -4.10013       -4.32754       -1.57707
H         -5.03454       -2.30692       -0.40093
H         -4.97923       -2.07678        2.00265
H         -3.14951       -1.72680        3.65449
H         -0.83503       -0.97722        3.91510
N          1.06104       -1.03959        2.11305
P          1.58580        0.17693        0.94931
C          2.63117       -0.38261       -0.38262
C          2.45052        0.16253       -1.62889
C          3.29329       -0.20050       -2.66329
C          4.33176       -1.09644       -2.44447
C          4.50563       -1.62241       -1.17062
C          3.66013       -1.25875       -0.13780
H          3.79406       -1.65376        0.85668
H          5.30435       -2.32212       -0.99343
C          5.21325       -1.52270       -3.56585
H          3.14453        0.20662       -3.64867
H          1.64424        0.85854       -1.78547
C          2.48562        1.52079        1.73246
C          3.21278        1.29808        2.87679
C          3.90676        2.34189        3.46158
C          3.87461        3.61296        2.90345
C          3.15123        3.81131        1.73513
C          2.45876        2.76659        1.15063
H          1.89384        2.91822        0.24370
H          3.13207        4.78966        1.28620
C          4.63661        4.73280        3.52210
H          4.47869        2.17471        4.35828
H          3.24261        0.30962        3.30556
H          1.22603       -0.60418        3.01129
H         -1.01657       -0.91030       -2.94003
C         -0.58784        1.87130       -2.17528
C         -0.80715        3.16197       -1.75672
C         -0.38678        4.22463       -2.53305
C          0.25037        4.00311       -3.74594
C          0.46284        2.69447       -4.15696
C          0.03890        1.63455       -3.37673
H          0.21457        0.62108       -3.69593
H          0.96714        2.51057       -5.09030
C          0.73350        5.14589       -4.56946
H         -0.55040        5.23515       -2.19951
H         -1.31381        3.33210       -0.82152
C         -2.90299        0.54943       -1.08011
C         -3.57999        0.87372       -2.23180
C         -4.96302        0.91446       -2.23005
C         -5.67640        0.62807       -1.07416
C         -4.97429        0.31147        0.08000
C         -3.59300        0.25848        0.07096
H         -3.04572        0.00919        0.96546
H         -5.51678        0.11167        0.98805
C         -7.16347        0.69975       -1.05862
H         -5.49670        1.17513       -3.12798
H         -3.02325        1.09807       -3.12821
Cl        -2.30759        2.61976        1.03708
H          2.80575       -5.97913       -1.27719
H          1.64882       -6.16136        1.16338
H          4.13959       -6.11912        0.76216
H          0.41267       -4.18360        1.76552
H         -3.53923       -4.95391       -0.04275
H         -2.56506       -2.42902       -1.45910
H         -4.45601       -3.72404        2.23681
H         -5.75928       -3.78071        0.19694
H          6.21319       -1.77179       -3.20791
H          4.80540       -2.40283       -4.06493
H          5.31539       -0.73102       -4.30940
H          5.64639        4.78706        3.11304
H          4.14681        5.69016        3.33884
H          4.71700        4.60464        4.60243
H          0.09914        6.02329       -4.43596
H          1.75156        5.42090       -4.29034
H          0.73155        4.89500       -5.63112
H         -7.57873        0.49796       -2.04699
H         -7.58464       -0.03159       -0.36726
H         -7.49960        1.68979       -0.74765
