105
-153.05821196
Cl        -0.01662        2.17104        3.02421
Pd        -0.40601        1.41515        0.93699
P         -1.01488        0.49283       -1.15937
N         -0.53096       -1.01684       -1.94074
C          0.34058       -2.04394       -1.56888
C          0.36209       -2.59550       -0.26547
C          1.21599       -3.68079        0.01797
C          1.12428       -4.35483        1.36748
C          1.75264       -5.75595        1.40413
C          3.13672       -5.74242        0.74847
C          3.04254       -5.30217       -0.72106
C          2.07630       -4.16964       -0.96903
C          2.02787       -3.62090       -2.24467
C          1.16758       -2.59713       -2.54484
H          1.14234       -2.18421       -3.53824
H          2.67926       -4.01532       -3.00622
H          4.03199       -5.00486       -1.09173
H          3.78809       -5.04885        1.29530
H          1.81117       -6.13440        2.43447
H          1.60831       -3.72422        2.12025
C         -0.62516       -2.16142        0.74939
C         -0.17553       -1.49005        1.91704
C         -1.10969       -1.18929        2.91233
C         -2.42295       -1.56148        2.78131
C         -2.87513       -2.23440        1.65133
C         -4.32070       -2.66734        1.60558
C         -4.79956       -3.12277        0.21707
C         -3.74921       -4.00584       -0.46256
C         -2.42271       -3.24856       -0.62318
C         -1.97709       -2.52205        0.62176
H         -1.63031       -3.93983       -0.93657
H         -4.11360       -4.36772       -1.43443
H         -4.99031       -2.24453       -0.41127
H         -4.94850       -1.84675        1.97441
H         -3.12426       -1.33398        3.56615
H         -0.77499       -0.65160        3.78193
N          1.16701       -1.06758        2.06231
P          1.65095        0.29587        1.06672
C          2.58558       -0.14006       -0.39079
C          2.33762        0.54808       -1.55205
C          3.07206        0.26356       -2.68848
C          4.06114       -0.71024       -2.66345
C          4.31766       -1.37167       -1.46970
C          3.58112       -1.08616       -0.33423
H          3.78349       -1.59536        0.59419
H          5.09428       -2.11654       -1.43618
C          4.85586       -1.01506       -3.88478
H          2.87917        0.79658       -3.60350
H          1.56955        1.30284       -1.56320
C          2.60660        1.49312        1.99396
C          2.99273        1.19122        3.27658
C          3.72092        2.11183        4.00871
C          4.05781        3.34167        3.45848
C          3.66451        3.62227        2.15632
C          2.93679        2.70017        1.42588
H          2.62273        2.91656        0.41687
H          3.92965        4.56936        1.71836
C          4.85770        4.32714        4.23730
H          4.02712        1.88179        5.01484
H          2.70853        0.24151        3.70076
H          1.90424       -1.72117        1.82398
H         -0.82388       -0.96625       -2.90873
C         -0.64739        1.83453       -2.31047
C         -1.00105        3.12873       -2.01394
C         -0.71211        4.15083       -2.89712
C         -0.05748        3.88717       -4.09171
C          0.28165        2.57447       -4.38695
C         -0.01318        1.55587       -3.49949
H          0.27166        0.54293       -3.72679
H          0.77954        2.35486       -5.31601
C          0.23752        4.98395       -5.05484
H         -0.99403        5.16309       -2.66246
H         -1.50523        3.33644       -1.08609
C         -2.81003        0.42060       -1.07167
C         -3.49223        0.42227       -2.26569
C         -4.87564        0.38485       -2.27209
C         -5.58609        0.34956       -1.08039
C         -4.88088        0.36033        0.11437
C         -3.49886        0.37897        0.11634
H         -2.95350        0.37418        1.04581
H         -5.42211        0.35718        1.04495
C         -7.07490        0.33831       -1.07956
H         -5.41177        0.39106       -3.20565
H         -2.93911        0.46208       -3.19137
Cl        -2.18704        2.79819        0.84137
H          2.74247       -6.15506       -1.34163
H          1.10363       -6.45945        0.86768
H          3.61787       -6.72704        0.83321
H          0.06949       -4.40755        1.66581
H         -3.58329       -4.90510        0.14383
H         -2.51182       -2.51737       -1.43518
H         -4.45842       -3.48290        2.32556
H         -5.76302       -3.64710        0.28787
H          5.74306       -0.38267       -3.93790
H          5.18254       -2.05595       -3.89150
H          4.26777       -0.84781       -4.78831
H          5.92544        4.17632        4.07261
H          4.61298        5.34975        3.94675
H          4.66502        4.23292        5.30687
H         -0.59525        5.12810       -5.74451
H          0.41182        5.92734       -4.53549
H          1.12827        4.76171       -5.64414
H         -7.46936        1.35280       -1.00883
H         -7.46674       -0.11280       -1.99223
H         -7.46261       -0.23361       -0.23526
