59
-75.79834493
Cl         1.67450        0.54553        2.34951
P          1.60723        0.05902       -0.86576
P         -1.55268       -0.22348       -0.74993
C          0.60882       -0.05315       -2.41687
H          0.30774        0.96035       -2.69449
H          1.24350       -0.43842       -3.22101
C         -0.60170       -0.91043       -2.17700
H         -0.31431       -1.93678       -1.93847
H         -1.26110       -0.95107       -3.04944
C          2.92311       -1.24560       -0.78051
H          2.95418       -1.71277       -1.77217
C          2.66009        1.58082       -0.77850
H          2.55778        1.96145        0.24527
C         -2.99424       -1.28770       -0.29303
H         -3.10823       -1.20242        0.79442
C         -2.45938        1.29017       -1.31924
H         -2.24349        1.34802       -2.39447
C          4.20756       -0.43497       -0.52011
H          4.41402       -0.44179        0.55911
H          5.07323       -0.92869       -0.98727
C          4.07925        1.03353       -1.00540
H          4.31271        1.08703       -2.07778
H          4.82203        1.67625       -0.50851
C         -4.16900       -0.59498       -1.00528
H         -4.27132       -1.02008       -2.01340
H         -5.11606       -0.82032       -0.49140
C         -3.94537        0.93923       -1.10702
H         -4.30653        1.41475       -0.18761
H         -4.55769        1.37015       -1.91343
C          2.65632       -2.29904        0.29134
H          2.52245       -1.79369        1.25677
H          3.55819       -2.91521        0.41290
C          2.23558        2.65012       -1.77802
H          2.32665        2.24260       -2.79340
H          1.16734        2.86500       -1.64557
C         -2.77999       -2.74494       -0.68194
H         -2.65070       -2.80767       -1.77036
H         -1.82953       -3.09400       -0.25579
C         -1.97305        2.56016       -0.61988
H         -0.88902        2.64400       -0.77354
H         -2.40495        3.43658       -1.12308
C          1.46148       -3.19030       -0.00665
H          1.56921       -3.68740       -0.97248
H          0.53609       -2.61598       -0.03877
H          1.33129       -3.96664        0.75081
C          3.04172        3.93426       -1.65201
H          2.94940        4.35991       -0.65100
H          2.71487        4.69524       -2.36441
H          4.10388        3.75567       -1.82862
C         -3.91587       -3.65215       -0.23313
H         -4.04575       -3.61264        0.85004
H         -3.73965       -4.69530       -0.50543
H         -4.86452       -3.35244       -0.68203
C         -2.27737        2.63141        0.87093
H         -1.95266        1.72956        1.38820
H         -1.77731        3.47737        1.34837
H         -3.34469        2.74419        1.06583
Cl        -1.46665       -0.34579        2.45468
Pd         0.09498       -0.03985        0.87082
