45
-71.81470546
C          2.39794        0.90617        2.49736
P          1.56723        0.73953        0.88254
P         -1.02968        0.27528       -0.86435
C         -0.42114       -0.03067       -2.55741
Cl         1.54604       -2.23835        1.91716
H          3.10535        1.73001        2.47065
H         -0.92941        0.62469       -3.25889
Cl        -1.44798       -2.62886        0.38079
C          0.51198        2.14523        0.47149
C         -0.60412        1.93902       -0.31021
C         -1.40411        3.00221       -0.67469
C         -1.08027        4.28042       -0.25487
C          0.04250        4.48847        0.52282
C          0.84325        3.41932        0.88453
H         -2.27671        2.82394       -1.28259
H         -1.70366        5.11305       -0.53645
H          0.29733        5.48438        0.84602
H          1.72823        3.57194        1.48060
Pd         0.14478       -1.06903        0.61057
H         -0.60352       -1.06440       -2.83695
H          2.93282       -0.00984        2.73139
H          0.64668        0.16203       -2.60609
C         -5.48308       -0.46223       -0.29942
C         -4.89366       -0.77385       -1.50874
C         -3.54166       -0.54917       -1.69615
C         -2.79090       -0.01237       -0.67512
C         -3.37280        0.29648        0.53325
C         -4.72493        0.07237        0.72328
H         -6.53591       -0.63991       -0.15238
H         -5.48485       -1.19548       -2.30503
H         -3.07010       -0.79590       -2.63338
H         -2.76500        0.70885        1.32366
H         -5.18312        0.31146        1.66886
C          4.44126       -0.10295       -2.53499
C          3.76571        1.10117       -2.48800
C          2.90009        1.36550       -1.44197
C          2.72204        0.42679       -0.45213
C          3.38426       -0.77781       -0.49971
C          4.25118       -1.04502       -1.54296
H          5.11559       -0.30955       -3.34998
H          3.91082        1.83335       -3.26524
H          2.35912        2.29678       -1.39469
H          3.19413       -1.51031        0.26844
H          4.77102       -1.98807       -1.58381
H          1.66171        1.09280        3.27394
