59
-75.80635956
Cl         1.69082        0.48393        2.30666
P          1.62236       -0.09451       -0.85605
P         -1.59396       -0.13767       -0.77059
C          0.59307        0.25113       -2.34991
H          0.33419        1.31264       -2.36284
H          1.19180        0.04813       -3.24341
C         -0.64450       -0.59736       -2.28348
H         -0.38488       -1.65739       -2.21821
H         -1.29133       -0.46532       -3.15655
C          2.63049       -1.61742       -1.20478
H          2.48298       -1.79207       -2.27927
C          3.00256        1.12410       -0.62252
H          3.09156        1.27293        0.46040
C         -3.02206       -1.26889       -0.45605
H         -3.23603       -1.19499        0.61748
C         -2.54532        1.42123       -1.09388
H         -2.17774        1.81688       -2.04833
C          4.08059       -1.16361       -0.96307
H          4.38306       -1.43211        0.05631
H          4.76841       -1.71151       -1.62480
C          4.23341        0.36851       -1.15182
H          4.35688        0.59718       -2.21940
H          5.14844        0.73680       -0.66322
C         -4.14228       -0.59488       -1.26547
H         -4.07895       -0.93827       -2.30783
H         -5.12885       -0.92441       -0.90410
C         -4.01417        0.95338       -1.21283
H         -4.57273        1.32695       -0.34405
H         -4.49570        1.41479       -2.08763
C          2.19716       -2.85734       -0.42364
H          2.78317       -3.71895       -0.77267
H          1.15979       -3.09299       -0.69278
C          2.75572        2.46348       -1.30703
H          3.68658        3.04752       -1.29610
H          2.54068        2.28655       -2.36872
C         -2.73509       -2.71692       -0.82876
H         -3.67395       -3.28787       -0.81582
H         -2.38920       -2.75598       -1.86955
C         -2.31698        2.42882        0.02694
H         -2.70227        2.00498        0.96429
H         -1.23952        2.54906        0.19577
C          2.32255       -2.74278        1.08883
H          3.36225       -2.65530        1.40666
H          1.90623       -3.61482        1.59866
H          1.79943       -1.86688        1.46948
C          1.63675        3.26285       -0.65988
H          1.85801        3.47543        0.38779
H          0.69770        2.71132       -0.68050
H          1.46804        4.21794       -1.16249
C         -1.71888       -3.36134        0.10079
H         -1.45957       -4.37632       -0.20856
H         -2.09743       -3.41401        1.12343
H         -0.79868       -2.77822        0.13779
C         -2.95423        3.78300       -0.24717
H         -2.55579        4.22695       -1.16146
H         -4.03442        3.69641       -0.37653
H         -2.77724        4.49060        0.56601
Cl        -1.58205       -0.08042        2.38690
Pd         0.04753        0.03488        0.85049
