105
-153.06201110
Cl         2.93201        2.16261        0.13014
Pd         0.86326        1.65737       -0.60702
P         -1.32892        1.26462       -1.31570
N         -1.45534       -0.34700       -0.71646
C         -0.50907       -1.25498       -1.18376
C         -0.14442       -2.31972       -0.31933
C          0.96995       -3.11890       -0.63128
C          1.36342       -4.22081        0.32814
C          2.68199       -4.93957       -0.00652
C          2.86603       -5.10329       -1.51813
C          2.85607       -3.73255       -2.21026
C          1.67379       -2.88690       -1.81620
C          1.27432       -1.86196       -2.66918
C          0.20766       -1.05680       -2.36418
H         -0.06810       -0.24648       -3.01372
H          1.82944       -1.69319       -3.57624
H          3.77503       -3.18665       -1.96646
H          3.79133       -5.65204       -1.74429
H          3.52348       -4.36317        0.39352
H          1.41183       -3.79532        1.33802
C         -1.05157       -2.66532        0.80772
C         -1.19792       -1.84030        1.95647
C         -2.03775       -2.27503        2.98154
C         -2.73663       -3.45004        2.88480
C         -2.67349       -4.23014        1.73820
C         -3.49247       -5.49964        1.69360
C         -3.63672       -6.12484        0.29514
C         -2.32594       -6.02623       -0.49149
C         -1.90414       -4.55757       -0.63601
C         -1.85313       -3.82174        0.68351
H         -0.94307       -4.48607       -1.15652
H         -2.41697       -6.51027       -1.47419
H         -4.42903       -5.60395       -0.25718
H         -4.48365       -5.29207        2.11662
H         -3.36806       -3.76809        3.69727
H         -2.13738       -1.66349        3.86168
N         -0.62015       -0.58369        2.11137
P          0.72834        0.24747        1.31085
C          2.16490       -0.82112        1.40662
C          3.12187       -0.85082        0.42036
C          4.24871       -1.63559        0.57872
C          4.42193       -2.40207        1.72316
C          3.44392       -2.36168        2.70738
C          2.31761       -1.57396        2.54658
H          1.55449       -1.53737        3.30819
H          3.57110       -2.94717        3.60180
C          5.64934       -3.22490        1.90763
H          5.00718       -1.65004       -0.18512
H          2.99283       -0.25065       -0.46530
C          1.02637        1.63145        2.42315
C          0.04816        2.59183        2.51173
C          0.22274        3.67949        3.34729
C          1.38304        3.81257        4.09716
C          2.35466        2.82474        4.00365
C          2.17658        1.73835        3.16725
H          2.93624        0.97904        3.08391
H          3.25451        2.91381        4.58797
C          1.56388        4.97367        5.01172
H         -0.54223        4.43374        3.41732
H         -0.84628        2.49346        1.91937
H         -0.76993       -0.11706        2.99737
H         -1.37980       -0.28025        0.29814
C         -2.00805        1.29904       -2.97271
C         -1.38381        1.97552       -3.99251
C         -1.93418        1.97253       -5.25969
C         -3.11894        1.29405       -5.51251
C         -3.72933        0.60573       -4.47224
C         -3.17515        0.61104       -3.20403
H         -3.63976        0.07328       -2.39206
H         -4.63952        0.06280       -4.66154
C         -3.69945        1.26732       -6.88365
H         -1.44377        2.49555       -6.06288
H         -0.46050        2.49176       -3.79184
C         -2.17532        2.40723       -0.23261
C         -1.90607        3.75115       -0.33758
C         -2.47092        4.63434        0.56465
C         -3.29583        4.17298        1.58218
C         -3.56081        2.81223        1.66436
C         -2.99547        1.92991        0.76170
H         -3.18103        0.87081        0.83722
H         -4.20548        2.44681        2.44538
C         -3.90915        5.12354        2.55042
H         -2.26341        5.68810        0.49050
H         -1.22990        4.09510       -1.10482
Cl         1.22910        2.87301       -2.45902
H          2.86544       -3.85429       -3.30095
H          2.73267       -5.91466        0.49802
H          2.05065       -5.71881       -1.91869
H          0.55502       -4.95841        0.37171
H         -1.54075       -6.57898        0.03936
H         -2.61611       -4.03567       -1.28685
H         -3.03332       -6.22707        2.37379
H         -3.96835       -7.17033        0.36689
H          6.07009       -3.52697        0.94745
H          6.41323       -2.66409        2.44778
H          5.43343       -4.13181        2.47429
H          1.08517        5.86795        4.61020
H          1.12736        4.76804        5.99004
H          2.62102        5.20122        5.15548
H         -4.78535        1.16862       -6.84982
H         -3.46779        2.18440       -7.42711
H         -3.30264        0.42758       -7.45576
H         -3.27680        6.00060        2.69554
H         -4.88224        5.46487        2.19482
H         -4.05179        4.65468        3.52509
