111
-148.54882126
P         -2.47001        2.13692       -0.38483
P          0.00101        0.40957        0.54173
C         -1.87928        2.26547        1.32264
C         -0.79169        1.51888        1.71944
C         -2.64643        3.82172       -1.13076
C         -1.68072        4.01611       -2.27929
C         -2.49113        3.12070        2.21673
H         -3.32449        3.72240        1.89318
C         -2.02307        3.20861        3.51632
H         -2.50189        3.87392        4.21613
C         -0.94252        2.44620        3.91642
H         -0.57915        2.51273        4.92872
C         -0.32383        1.59937        3.01421
H          0.52068        0.99884        3.31191
Pd        -1.15661        0.57313       -1.46866
Cl        -2.24990        1.01693       -3.37198
Cl         0.22107       -0.98334       -2.31461
C         -4.13634        3.88870       -1.53245
C         -4.19977        1.50820       -0.58769
H         -1.89343        3.31255       -3.08505
H         -1.75126        5.02345       -2.69651
H         -0.64778        3.85195       -1.96254
H         -4.23271        4.42768       -2.48591
H         -4.69501        4.48877       -0.79939
H         -4.11906        0.48707       -0.98512
C         -4.78021        2.47679       -1.63823
C         -4.95641        1.51215        0.72310
H         -2.42413        4.53599       -0.32609
H         -5.87235        2.53717       -1.52159
H         -4.60948        2.07458       -2.64782
H         -5.95048        1.07195        0.61427
H         -4.42026        0.95492        1.49336
H         -5.08915        2.53173        1.08824
C         -1.17754       -3.93929        1.13125
C          0.18263       -3.62239        0.88166
C          0.52729       -2.28996        0.72844
C         -0.40327       -1.29779        0.89163
C         -1.69579       -1.59201        1.24215
C         -2.10496       -2.90432        1.41732
O         -1.62081       -5.28477        1.03271
C          1.26662       -4.69710        0.70959
H          1.52418       -2.01012        0.43629
H         -2.39254       -0.77775        1.34713
C         -3.55185       -3.17944        1.85390
C          4.44986        1.24157       -0.01243
C          3.53491        1.51743       -1.05972
C          2.18939        1.28422       -0.83176
C          1.75447        0.71556        0.33692
C          2.64760        0.34373        1.30857
C          4.00650        0.56652        1.15341
O          5.80119        1.66650       -0.11764
C          3.97238        2.06274       -2.42862
H          1.45766        1.53969       -1.57829
H          2.26592       -0.12757        2.19719
C          4.97685        0.10939        2.25449
C          0.95135       -5.94911        1.54811
C          1.37771       -5.06860       -0.77687
C          2.63553       -4.16741        1.19183
C         -4.45951       -3.18170        0.61423
C         -3.67174       -4.51978        2.60189
C         -4.03776       -2.08250        2.82720
C         -2.05199       -5.64846       -0.27313
H          0.03692       -6.43181        1.21268
H          1.75526       -6.68131        1.47652
H          0.82444       -5.68599        2.59770
H          0.44098       -5.47391       -1.15220
H          1.62195       -4.19127       -1.37544
H          2.15576       -5.81462       -0.93633
H          3.38222       -4.96114        1.18553
H          3.00974       -3.37186        0.54938
H          2.56272       -3.78463        2.20941
H         -4.41167       -2.22235        0.09933
H         -4.15669       -3.95116       -0.09266
H         -5.49758       -3.36560        0.88976
H         -3.42683       -5.35921        1.95650
H         -2.99361       -4.54535        3.45418
H         -4.68577       -4.67355        2.97017
H         -4.12819       -1.11744        2.33387
H         -5.01966       -2.32925        3.23045
H         -3.34828       -1.97468        3.66406
H         -1.47651       -6.50562       -0.62256
H         -3.10452       -5.92997       -0.24845
H         -1.91671       -4.81425       -0.96287
C          6.03220        2.98993        0.34859
C          3.01677        1.56825       -3.53984
C          3.93940        3.59811       -2.40104
C          5.38186        1.56660       -2.79878
C          5.17600        1.25165        3.26204
C          4.41690       -1.11750        3.00785
C          6.33123       -0.31403        1.65685
H          2.90674        0.48476       -3.50253
H          2.02759        2.01488       -3.45144
H          3.39891        1.83252       -4.52549
H          4.61265        3.99392       -1.64448
H          4.23491        4.01215       -3.36473
H          2.93630        3.95766       -2.17255
H          6.12966        1.93867       -2.10310
H          5.42164        0.47798       -2.78060
H          5.66536        1.89998       -3.79675
H          4.22570        1.53824        3.71198
H          5.85248        0.95298        4.06244
H          5.59335        2.13295        2.78128
H          4.16240       -1.91398        2.31026
H          5.15346       -1.51057        3.70831
H          3.52859       -0.86685        3.58570
H          6.83391        0.52374        1.17995
H          6.19295       -1.09199        0.90671
H          6.99640       -0.70091        2.42845
H          5.10808        3.42614        0.72987
H          6.78008        2.97168        1.14122
H          6.41567        3.60411       -0.46589
