111
-148.55554003
P         -2.51272        2.07760       -0.58227
P         -0.02035        0.38712        0.41720
C         -1.93833        2.24747        1.12441
C         -0.84662        1.52267        1.54894
C         -2.71200        3.73103       -1.38800
C         -1.60837        3.98432       -2.39244
C         -2.58492        3.09835        1.99723
H         -3.43472        3.66631        1.65452
C         -2.13840        3.21326        3.30250
H         -2.64342        3.87533        3.98676
C         -1.04709        2.48039        3.72865
H         -0.70043        2.56846        4.74513
C         -0.39876        1.63214        2.84856
H          0.45279        1.05099        3.16574
Pd        -1.05691        0.64335       -1.64641
Cl        -2.35544        0.79579       -3.46572
Cl         0.55654       -0.68463       -2.46872
C         -4.12565        3.65581       -1.99406
C         -4.24086        1.43097       -0.73483
H         -1.72378        4.95729       -2.87577
H         -0.62447        3.95540       -1.91769
H         -1.61649        3.22423       -3.17570
H         -4.04321        3.32840       -3.03960
H         -4.58058        4.65723       -2.03297
H         -4.20615        0.67072       -1.52672
C         -5.03191        2.66250       -1.21300
C         -4.73442        0.82845        0.56245
H         -2.67976        4.47235       -0.57882
H         -5.46210        3.16878       -0.33797
H         -5.89170        2.35071       -1.82529
H         -4.09360        0.00467        0.88140
H         -4.73551        1.57069        1.36217
H         -5.75344        0.44715        0.46407
C         -1.17897       -3.93301        1.26240
C          0.03491       -3.65668        0.58246
C          0.36346       -2.33312        0.34010
C         -0.41726       -1.31235        0.81407
C         -1.53765       -1.57203        1.55975
C         -1.92642       -2.87254        1.83593
O         -1.67074       -5.26354        1.33631
C          0.96987       -4.75946        0.06179
H          1.22357       -2.07890       -0.25462
H         -2.11149       -0.73666        1.92066
C         -3.16074       -3.11860        2.71798
C          4.43536        1.31160        0.17669
C          3.54938        1.79677       -0.82131
C          2.19918        1.51934       -0.68786
C          1.73648        0.71268        0.31868
C          2.60402        0.13639        1.21025
C          3.96576        0.38622        1.14626
O          5.76125        1.81082        0.24992
C          4.00022        2.57875       -2.06690
H          1.48880        1.93251       -1.38415
H          2.20242       -0.51298        1.96951
C          4.88571       -0.36185        2.12625
C          2.43996       -4.28555        0.09931
C          0.89138       -6.02385        0.93675
C          0.59687       -5.09166       -1.39099
C         -3.37000       -1.94904        3.70685
C         -4.40990       -3.23831        1.83166
C         -2.98691       -4.39522        3.56073
C         -2.48928       -5.63964        0.23559
H          3.11573       -5.09832       -0.16583
H          2.62406       -3.47479       -0.60369
H          2.70551       -3.94308        1.09851
H          1.11178       -5.78451        1.97654
H         -0.09756       -6.47281        0.90175
H          1.60585       -6.77601        0.60314
H          1.24712       -5.86753       -1.79410
H         -0.43047       -5.44066       -1.46440
H          0.69144       -4.20910       -2.02332
H         -3.65882       -1.03300        3.19384
H         -4.16348       -2.18063        4.41703
H         -2.46042       -1.75302        4.27401
H         -4.32997       -4.08009        1.14872
H         -5.30504       -3.38157        2.43636
H         -4.54752       -2.33882        1.23297
H         -2.91068       -5.27819        2.93070
H         -2.08204       -4.33629        4.16463
H         -3.83368       -4.54065        4.23102
H         -2.01075       -6.44350       -0.32316
H         -3.44741       -6.00615        0.60395
H         -2.65343       -4.78716       -0.42479
C          5.86195        2.98902        1.03216
C          5.52006        2.49644       -2.29074
C          3.32609        1.97362       -3.31908
C          3.57906        4.05098       -1.93005
C          4.49904       -1.85624        2.15647
C          6.36584       -0.29255        1.71099
C          4.71948        0.23095        3.53499
H          6.06386        2.99292       -1.49056
H          5.84764        1.45790       -2.32272
H          5.80565        2.97267       -3.22839
H          3.69033        2.45286       -4.22733
H          3.53866        0.90748       -3.39215
H          2.24481        2.09820       -3.29834
H          3.86450        4.62101       -2.81380
H          2.49968        4.13802       -1.80919
H          4.04879        4.51575       -1.06527
H          4.54190       -2.28122        1.15419
H          5.18160       -2.42184        2.79027
H          3.49434       -2.00701        2.54752
H          6.98571       -0.91032        2.36038
H          6.49399       -0.64026        0.68650
H          6.74399        0.72543        1.76738
H          5.34523       -0.29529        4.25538
H          3.68539        0.15508        3.86978
H          4.99819        1.28288        3.55383
H          5.55175        2.78524        2.05579
H          6.89614        3.33396        1.03103
H          5.22195        3.76746        0.61998
