58
-89.86909860
P          1.57934        0.05275        0.74600
C          3.01732        1.09802        0.49688
C          4.26378        0.51670        0.44283
C          5.38379        1.30598        0.25188
C          5.24569        2.67327        0.11653
C          3.99302        3.25193        0.17152
C          2.87502        2.46022        0.36356
H          1.89106        2.89965        0.39512
H          4.35404       -0.55300        0.54548
C          1.93769       -1.64276        0.27096
C          1.99263       -1.94344       -1.07054
C          2.25814       -3.23678       -1.47952
C          2.47498       -4.22184       -0.53672
C          2.43338       -3.91431        0.80909
C          2.16642       -2.61889        1.21421
H          2.13711       -2.36839        2.26195
H          1.83275       -1.15564       -1.78912
C          1.05777        0.19193        2.50847
C          0.09877        1.35728        2.72219
C         -1.36584        1.00873        2.49888
P         -1.74694        0.27698        0.84834
C         -1.50991       -1.50848        0.78316
C         -1.48190       -2.10093       -0.45928
C         -1.27131       -3.46284       -0.57289
C         -1.09362       -4.22572        0.56335
C         -1.13314       -3.63078        1.80852
C         -1.34473       -2.26876        1.91808
H         -1.39220       -1.80496        2.88880
H         -1.61987       -1.48957       -1.33758
C         -3.42786        0.70517        0.38660
C         -4.35103       -0.28669        0.14458
C         -5.64386        0.04891       -0.21475
C         -6.00216        1.37753       -0.33020
C         -5.07238        2.36943       -0.08780
C         -3.78019        2.03034        0.27255
H         -3.03949        2.79391        0.45130
H         -4.05630       -1.31953        0.23505
Pd        -0.08346        0.80393       -0.68354
Cl         1.49263        1.09990       -2.26003
Cl        -1.72544        1.49054       -2.05232
H         -1.71789        0.30206        3.25171
H         -1.99446        1.89698        2.59855
H          0.22034        1.75958        3.74014
H          0.38711        2.18093        2.05483
H          0.60705       -0.74763        2.82766
H          1.98008        0.31248        3.08268
H          6.36073        0.85349        0.20618
H          3.88478        4.31832        0.06038
H          2.29532       -3.47336       -2.53012
H          2.60551       -4.68325        1.54419
H         -1.23876       -3.92420       -1.54613
H         -0.99708       -4.22733        2.69564
H         -6.36823       -0.72551       -0.40669
H         -5.35011        3.40619       -0.18380
H          6.11680        3.28959       -0.03528
H          2.67955       -5.23209       -0.85168
H         -0.92219       -5.28638        0.47821
H         -7.00833        1.64080       -0.61310
