64
-97.20858014
Cl        -1.63698       -1.47409       -2.47394
Cl         1.54939       -1.46928       -2.90792
P          1.95808       -0.67243        0.23861
C          2.19193       -2.32818        1.03245
C          3.72844       -0.25260       -0.12972
P         -1.28654       -0.10773        0.41336
C          1.29553        0.57455        1.39842
C         -0.12393        0.86328        1.44735
C         -0.33221        1.99892        2.33427
C          0.97144        2.44495        2.79205
C          1.97621        1.57325        2.20789
H         -1.28850        2.46764        2.57020
H          1.16291        3.28596        3.46227
Pd         0.16284       -1.02930       -1.20819
H          3.05592        1.64469        2.35562
C         -4.88382        2.48127       -0.65103
C         -4.49222        2.33567        0.66510
C         -3.40840        1.53430        0.97748
C         -2.71851        0.89069       -0.02498
C         -3.12570        1.01337       -1.33404
C         -4.20472        1.81587       -1.65204
H         -5.72712        3.10625       -0.89603
H         -5.03019        2.84353        1.44871
H         -3.10758        1.39376        2.00308
H         -2.61411        0.45583       -2.09969
H         -4.51967        1.91393       -2.67803
C         -2.74392       -3.81361        2.59636
C         -2.33431       -2.70791        3.31643
C         -1.89544       -1.57665        2.65178
C         -1.86783       -1.56360        1.27647
C         -2.27932       -2.65940        0.55519
C         -2.71878       -3.79155        1.21538
H         -3.08582       -4.69530        3.11353
H         -2.35545       -2.72550        4.39372
H         -1.56904       -0.70530        3.19709
H         -2.25159       -2.61758       -0.52178
H         -3.04034       -4.65280        0.65315
C          4.03820       -0.31166       -1.60892
H          3.90021        0.76058        0.25665
C          4.50727       -1.29784        0.69308
H          4.74214       -0.89232        1.68816
C          3.69579       -2.61141        0.85108
H          5.47799       -1.49596        0.21558
C          1.75315       -2.28075        2.47984
H          1.58138       -3.04530        0.46670
H          4.06627       -3.19636        1.70526
H          3.85369       -3.24558       -0.03341
H          2.33256       -1.53802        3.03193
H          0.70038       -2.00500        2.56654
H          1.89101       -3.24558        2.97365
H          5.08699       -0.08098       -1.80838
H          3.83985       -1.31067       -2.00036
H          3.42663        0.39017       -2.17827
Fe         0.88127        2.44592        0.73635
C          1.45541        4.19615       -0.07690
C          0.03120        3.98043       -0.27498
C         -0.14055        2.75019       -1.02597
C          1.17413        2.18680       -1.26216
C          2.16127        3.07867       -0.68223
H          1.91357        5.04938        0.42935
H         -0.77077        4.64710        0.05127
H         -1.09025        2.32511       -1.35059
H          1.38248        1.28315       -1.83852
H          3.24598        2.95562       -0.73017
