100
-131.98102772
C         -1.61876        3.78622       -1.44557
C         -2.35992        2.52150       -1.47820
C         -0.22866        3.48910       -1.48642
C         -0.03506        2.01739       -1.58578
C          1.12909        1.42454       -2.30242
C         -1.42024        1.43868       -1.55090
C         -1.83629        0.03735       -1.97292
C         -0.88113       -0.67968       -2.90404
Cl         0.99144       -0.45221        2.74761
Cl        -1.85676       -1.83312        2.26177
C          3.22996        0.38743       -3.83578
C          2.48576        1.44584       -4.31888
C          2.94248       -0.14282       -2.58636
C          1.46126        1.96111       -3.56533
C          1.90453        0.34562       -1.82844
H         -3.44445        2.42507       -1.55268
H          0.57196        4.22790       -1.57061
H          0.02943       -0.96213       -2.37627
H         -1.31869       -1.59633       -3.30669
H         -0.59976       -0.04804       -3.75011
H          4.04291       -0.01337       -4.41889
H          2.71133        1.86720       -5.28515
H          3.56526       -0.93225       -2.19975
H          0.87540        2.78125       -3.94332
H         -2.06113        4.78578       -1.44467
P          1.77544       -0.29763       -0.14107
H         -2.80774        0.12603       -2.47562
P         -2.17563       -0.99778       -0.49097
H         -3.46511       -3.02440       -0.33275
C         -1.66557       -3.72421       -1.27030
C         -2.74245       -2.65941       -1.06333
C         -1.22334       -4.33050        0.06397
H         -3.22904        0.78772        0.65509
C         -4.91539       -0.04532       -0.38474
C         -3.59462       -0.20027        0.38512
H         -4.67096        0.25400       -1.41857
C         -5.72257       -1.34481       -0.44301
H          3.61793       -1.82776       -0.38516
H          2.58356        0.79853        1.86550
C          3.55184        3.28952        1.16646
C          2.71331        2.30708        0.32910
C          2.89188        0.86297        0.81682
C          4.37812        0.47609        0.73408
C          5.25378        1.44656        1.55421
C          5.04237        2.90634        1.10857
H          3.20826        3.26336        2.20798
H          3.39610        4.32392        0.82938
H          3.03747        2.36371       -0.71740
H          1.65368        2.58307        0.31535
H          4.53354       -0.55561        1.07231
H          4.68964        0.49417       -0.31700
H          4.99848        1.35198        2.61706
H          6.31432        1.16727        1.48214
H          5.40928        3.02926        0.08175
H          5.64534        3.59261        1.71996
C          2.66501       -4.31427       -1.03922
C          1.92045       -2.96377       -1.02599
C          2.58223       -1.97812       -0.06019
C          2.61759       -2.57298        1.35542
C          3.38676       -3.90794        1.36888
C          2.76059       -4.91087        0.37991
H          3.67523       -4.16664       -1.44058
H          2.17603       -5.01882       -1.72655
H          0.89280       -3.11834       -0.68957
H          1.84274       -2.53642       -2.03466
H          3.03865       -1.85611        2.07225
H          1.58984       -2.74734        1.69405
H          4.43254       -3.72698        1.09122
H          3.42025       -4.32734        2.38415
H          1.75824       -5.18510        0.73018
H          3.33131       -5.85025        0.36741
H         -0.80377       -3.23101       -1.74967
C         -2.15883       -4.82461       -2.21501
H         -3.76724       -0.73690        1.31789
C         -5.76383        1.06939        0.23785
H         -3.28566       -2.48566       -1.99419
H         -0.84639       -3.57494        0.75222
H         -0.44566       -5.08195       -0.07696
H         -2.06257       -4.82208        0.55671
H         -2.44869       -4.42031       -3.18627
H         -1.39017       -5.58072       -2.38297
H         -3.03012       -5.32828       -1.79518
H         -5.22823       -2.11648       -1.02995
H         -5.88812       -1.74131        0.55919
H         -6.70253       -1.17953       -0.89391
H         -5.23966        2.02588        0.23369
H         -6.70419        1.20438       -0.29884
H         -6.00710        0.83194        1.27394
Fe        -1.07525        2.63081        0.12682
C         -2.44127        3.02319        1.61506
C         -1.61279        4.19185        1.38546
C         -0.22950        3.79881        1.57690
C         -0.21003        2.40439        1.97287
C         -1.57493        1.92365        1.99402
H         -3.53314        3.00466        1.59823
H         -1.96793        5.19287        1.13026
H          0.63642        4.46251        1.51584
H          0.65932        1.82737        2.28695
H         -1.88275        0.92671        2.31819
Pd        -0.28878       -0.87415        0.93196
