59
-75.80476557
Cl         1.54681        0.40944        2.37293
P          1.49087        0.06932       -0.79722
P         -1.69014       -0.25624       -0.75486
C          0.49229        0.16764       -2.35086
H          0.17425        1.20309       -2.49211
H          1.13513       -0.09485       -3.19698
C         -0.70462       -0.73056       -2.24027
H         -0.39408       -1.77188       -2.12634
H         -1.35126       -0.67338       -3.12132
C          2.74931       -1.29283       -0.90405
H          2.48493       -1.91653       -1.76701
C          2.62564        1.52870       -0.58253
H          2.33120        2.02047        0.35314
C         -3.11013       -1.41702       -0.46274
H         -3.19504       -1.51505        0.62651
C         -2.64145        1.31766       -1.04142
H         -2.45267        1.60370       -2.08310
C          4.05502       -0.51122       -1.14959
H          4.91569       -1.09891       -0.79727
H          4.21153       -0.37227       -2.22970
C          4.01496        0.87441       -0.45201
H          4.78604        1.53599       -0.87024
H          4.27370        0.75436        0.61030
C         -4.30897       -0.63214       -1.01961
H         -4.42571       -0.87375       -2.08537
H         -5.24127       -0.96481       -0.53766
C         -4.11166        0.89526       -0.85208
H         -4.43452        1.19071        0.15571
H         -4.76246        1.45293       -1.54239
C          2.82050       -2.14583        0.36159
H          2.92224       -1.47931        1.22790
H          3.74914       -2.73321        0.34111
C          2.53071        2.52125       -1.73897
H          2.87270        2.02569       -2.65699
H          1.47878        2.77091       -1.92213
C         -2.94623       -2.79566       -1.09553
H         -3.91104       -3.32034       -1.05608
H         -2.73046       -2.67426       -2.16473
C         -2.23770        2.45085       -0.09894
H         -3.01554        3.22684       -0.12574
H         -2.24746        2.07105        0.93119
C          1.63767       -3.07973        0.54856
H          1.75162       -3.71250        1.43179
H          1.51324       -3.73763       -0.31363
H          0.71037       -2.52306        0.67252
C          3.31635        3.80349       -1.50051
H          4.38284        3.60883       -1.37928
H          2.97743        4.30827       -0.59379
H          3.20795        4.50873       -2.32781
C         -1.87571       -3.64000       -0.42731
H         -2.08169       -3.77122        0.63671
H         -0.89843       -3.16800       -0.50928
H         -1.79664       -4.63394       -0.87373
C         -0.89069        3.07272       -0.42346
H         -0.09041        2.33714       -0.35758
H         -0.87702        3.47877       -1.43664
H         -0.63883        3.88645        0.26052
Cl        -1.75024       -0.28886        2.38341
Pd        -0.08450       -0.03844        0.90546
