105
-153.06217385
Cl         0.09178        2.36481        2.88508
Pd        -0.44594        1.34412        0.94551
P         -1.10085        0.49005       -1.15340
N         -0.65068       -1.01297       -1.95576
C          0.23788       -2.01986       -1.58220
C          0.35073       -2.48554       -0.24763
C          1.28397       -3.50213        0.05072
C          1.36587       -4.03046        1.46403
C          2.59280       -4.91057        1.75300
C          2.84644       -5.89691        0.61022
C          3.07814       -5.14419       -0.70759
C          2.06466       -4.05829       -0.96721
C          1.90397       -3.61171       -2.27256
C          1.00720       -2.62199       -2.57659
H          0.90528       -2.27622       -3.59051
H          2.50678       -4.04747       -3.05133
H          4.07813       -4.69445       -0.70552
H          3.69611       -6.55479        0.84213
H          3.47570       -4.27167        1.88138
H          1.35767       -3.18275        2.15779
C         -0.66431       -2.10586        0.76551
C         -0.27028       -1.48007        1.97914
C         -1.22317       -1.32937        2.99079
C         -2.51247       -1.76081        2.81800
C         -2.91906       -2.36625        1.63536
C         -4.34395       -2.85687        1.54144
C         -4.78112       -3.25888        0.12379
C         -3.68026       -4.05816       -0.57785
C         -2.38906       -3.23283       -0.67878
C         -1.99488       -2.53803        0.60267
H         -1.56104       -3.87382       -1.00628
H         -4.01207       -4.38962       -1.57203
H         -5.00111       -2.35823       -0.46227
H         -5.01176       -2.08323        1.94052
H         -3.23032       -1.63470        3.61080
H         -0.93310       -0.84842        3.90849
N          1.02296       -0.97461        2.18330
P          1.62405        0.23540        1.05200
C          2.59082       -0.32620       -0.33567
C          2.37508        0.25681       -1.55958
C          3.16377       -0.10278       -2.63694
C          4.17540       -1.04235       -2.48685
C          4.39784       -1.59272       -1.23104
C          3.60631       -1.23325       -0.15487
H          3.77342       -1.65352        0.82425
H          5.19337       -2.30636       -1.10175
C          5.02885       -1.42848       -3.64381
H          2.99493        0.34295       -3.60211
H          1.58511        0.98100       -1.66595
C          2.60666        1.50387        1.85508
C          3.24635        1.24725        3.04398
C          4.00785        2.23616        3.64010
C          4.14153        3.48241        3.04258
C          3.48927        3.71991        1.84016
C          2.72880        2.72973        1.24456
H          2.22247        2.90996        0.30876
H          3.57642        4.68688        1.37495
C          4.93388        4.55807        3.70032
H          4.50194        2.04587        4.57755
H          3.15535        0.27495        3.49981
H          1.15543       -0.53277        3.08383
H         -0.92467       -0.94419       -2.92792
C         -0.65799        1.86404       -2.23130
C         -0.97619        3.15080       -1.86866
C         -0.62702        4.20932       -2.68489
C          0.05097        3.98784       -3.87543
C          0.35166        2.68189       -4.23684
C         -0.00221        1.62614       -3.41697
H          0.24647        0.61595       -3.69502
H          0.86607        2.49694       -5.16443
C          0.41043        5.12478       -4.76743
H         -0.87985        5.21658       -2.40088
H         -1.50070        3.32105       -0.94372
C         -2.89667        0.46317       -1.10003
C         -3.58585        0.24621        0.06775
C         -4.96826        0.24271        0.06376
C         -5.67159        0.42423       -1.11849
C         -4.95926        0.63580       -2.29085
C         -3.57570        0.65485       -2.28008
H         -3.02010        0.82379       -3.18939
H         -5.49444        0.79171       -3.21190
C         -7.16042        0.43220       -1.12011
H         -5.51068        0.10274        0.98296
H         -3.03737        0.09644        0.98373
Cl        -2.32794        2.59749        0.95690
H          3.07399       -5.84567       -1.55174
H          2.47496       -5.44341        2.70716
H          1.97914       -6.56066        0.50349
H          0.44844       -4.59204        1.67651
H         -3.48132       -4.97682       -0.01180
H         -2.50094       -2.47341       -1.46125
H         -4.45804       -3.71376        2.21619
H         -5.72081       -3.82857        0.15005
H          5.91077       -0.78949       -3.70544
H          5.36644       -2.46212       -3.55502
H          4.48148       -1.33962       -4.58332
H          4.30310        5.15257        4.36254
H          5.74747        4.14065        4.29521
H          5.37465        5.22985        2.96242
H          1.31741        4.90920       -5.33402
H         -0.39119        5.32713       -5.47904
H          0.58826        6.03491       -4.19285
H         -7.55792       -0.22458       -0.34493
H         -7.54198        1.43771       -0.93786
H         -7.55535        0.09013       -2.07777
