111
-148.55267784
P         -2.24743        2.43285        0.81080
P         -0.09957        0.09660        0.56066
C         -1.40836        1.81705        2.29007
C         -0.47378        0.81146        2.17592
C         -2.25501        4.28189        0.75785
C         -1.29446        4.80028       -0.29079
C         -1.69040        2.36208        3.52592
H         -2.42617        3.14592        3.60614
C         -1.02783        1.89854        4.64942
H         -1.24752        2.32212        5.61582
C         -0.08155        0.89858        4.53200
H          0.43953        0.54224        5.40530
C          0.19909        0.35613        3.29060
H          0.94494       -0.41576        3.18055
Pd        -1.26209        1.38551       -0.98410
Cl        -2.71810        2.43040       -2.32961
Cl        -0.02651        0.38626       -2.57694
C         -3.73566        4.61409        0.49303
C         -4.06523        2.09471        0.79962
H         -1.56680        4.43071       -1.28099
H         -1.29992        5.89196       -0.33296
H         -0.27144        4.47327       -0.08914
H         -3.88014        4.73772       -0.58914
H         -3.99692        5.58584        0.93885
H         -4.29693        1.72745       -0.20917
C         -4.67808        3.49115        1.01359
C         -4.44254        1.06653        1.84478
H         -1.95786        4.62116        1.75866
H         -4.86367        3.63602        2.08675
H         -5.66603        3.55316        0.53240
H         -5.51608        0.86400        1.83648
H         -3.91713        0.12258        1.67975
H         -4.18010        1.41529        2.84505
C         -1.11561       -4.33636        0.23703
C         -1.22644       -3.68877        1.49438
C         -0.90800       -2.34308        1.57082
C         -0.56626       -1.63155        0.45013
C         -0.57767       -2.22898       -0.78271
C         -0.88045       -3.57031       -0.93260
O         -1.20122       -5.75175        0.15639
C         -1.64955       -4.43162        2.77138
H         -0.91549       -1.83238        2.51666
H         -0.33729       -1.62081       -1.63638
C         -0.91443       -4.17212       -2.34598
C          4.18596        0.95409       -0.69366
C          3.67815       -0.36447       -0.82099
C          2.37474       -0.60531       -0.42222
C          1.61343        0.38433        0.14045
C          2.13125        1.63390        0.35940
C          3.43241        1.93962       -0.00479
O          5.42491        1.29976       -1.29550
C          4.48789       -1.51443       -1.43922
H          1.92513       -1.57039       -0.57272
H          1.49329        2.37652        0.80814
C          3.98442        3.33717        0.31545
C         -0.40297       -5.00085        3.46540
C         -2.36403       -3.47142        3.74985
C         -2.64121       -5.56463        2.45034
C         -1.91059       -5.34278       -2.42862
C         -1.37594       -3.11513       -3.37575
C          0.49564       -4.64626       -2.72964
C          0.05045       -6.41409        0.28746
H         -0.67123       -5.52196        4.38407
H          0.12013       -5.70365        2.82134
H          0.29401       -4.20295        3.72078
H         -3.18305       -2.95118        3.25377
H         -2.77915       -4.01941        4.59543
H         -1.68093       -2.72719        4.15661
H         -2.99133       -6.04904        3.36152
H         -3.50853       -5.17597        1.91773
H         -2.18228       -6.32862        1.82765
H         -1.60856       -6.16739       -1.78798
H         -2.90406       -5.02354       -2.11548
H         -1.98216       -5.72558       -3.44635
H         -2.31711       -2.65994       -3.06876
H         -0.63861       -2.32380       -3.50148
H         -1.52697       -3.56882       -4.35490
H          0.50246       -5.08396       -3.72750
H          1.19666       -3.81210       -2.72338
H          0.86433       -5.39392       -2.03122
H          0.00801       -7.11194        1.12360
H          0.26228       -6.98096       -0.61890
H          0.84840       -5.69014        0.45780
C          5.30212        1.77720       -2.62958
C          4.22237       -1.55911       -2.95191
C          5.99368       -1.34712       -1.16747
C          4.06815       -2.86935       -0.82399
C          3.64420        4.29406       -0.83717
C          3.35187        3.88537        1.61537
C          5.50667        3.29598        0.54106
H          3.16084       -1.70343       -3.15209
H          4.52478       -0.63145       -3.43210
H          4.76950       -2.37617       -3.42138
H          6.55802       -2.19592       -1.55291
H          6.38566       -0.45034       -1.64041
H          6.18412       -1.27057       -0.09751
H          4.72182       -3.66996       -1.16948
H          4.12618       -2.83546        0.26358
H          3.05263       -3.14436       -1.10398
H          2.56606        4.34982       -0.98609
H          4.00922        5.29977       -0.63047
H          4.08966        3.96019       -1.77123
H          3.83271        4.81555        1.91727
H          2.29170        4.10030        1.48998
H          3.46262        3.17120        2.43097
H          5.75851        2.58683        1.32889
H          5.88656        4.27513        0.83163
H          6.03371        2.99331       -0.36022
H          5.71637        2.78296       -2.69809
H          5.86383        1.13059       -3.30347
H          4.25406        1.79365       -2.93165
