111
-148.55534515
P         -1.67406        2.76140        0.09380
P         -0.56499       -0.17393        0.44108
C         -1.53612        2.04375        1.75290
C         -1.12808        0.73473        1.89882
C         -0.49958        4.17409       -0.11544
C          0.55217        3.84313       -1.15226
C         -1.82021        2.80654        2.86759
H         -2.10283        3.83959        2.74703
C         -1.72013        2.24673        4.12936
H         -1.94560        2.84045        5.00017
C         -1.32831        0.92980        4.27343
H         -1.24727        0.49428        5.25577
C         -1.02252        0.17511        3.15554
H         -0.68901       -0.84471        3.25663
Pd        -1.51932        0.96327       -1.34669
Cl        -2.30376        2.29119       -2.97366
Cl        -1.24171       -0.86747       -2.61585
C         -1.41810        5.35060       -0.50301
C         -3.28363        3.63313       -0.19063
H          0.08706        3.60894       -2.11202
H          1.23576        4.68083       -1.30889
H          1.14304        2.97416       -0.85649
H         -1.38587        5.47571       -1.59401
H         -1.02914        6.29278       -0.08831
H         -3.56088        3.41274       -1.22991
C         -2.88983        5.11506       -0.05813
C         -4.37563        3.17153        0.75104
H         -0.04523        4.34251        0.86980
H         -3.01390        5.42431        0.98874
H         -3.58138        5.74737       -0.63580
H         -4.54168        2.09517        0.66635
H         -4.11604        3.38129        1.78897
H         -5.32094        3.67762        0.54247
C         -0.55932       -4.68072        1.10798
C         -1.44609       -4.11898        0.15379
C         -1.45306       -2.74308       -0.00555
C         -0.56919       -1.94832        0.67567
C          0.37213       -2.49863        1.50680
C          0.42339       -3.86552        1.72472
O         -0.67154       -6.05053        1.46663
C         -2.38993       -4.97601       -0.70513
H         -2.13938       -2.27088       -0.68606
H          1.07563       -1.83802        1.98436
C          1.51663       -4.43871        2.63999
C          3.59527        1.36026       -0.60256
C          2.89670        0.53045       -1.51620
C          1.63874        0.07807       -1.15917
C          1.10257        0.36774        0.06677
C          1.80891        1.09311        0.98879
C          3.07630        1.57052        0.70103
O          4.79366        2.00823       -1.00504
C          3.44793        0.16769       -2.90312
H          1.02951       -0.47192       -1.85516
H          1.34635        1.29939        1.93773
C          3.84189        2.34244        1.78632
C         -1.77851       -6.36029       -0.98900
C         -3.73758       -5.12991        0.01536
C         -2.63552       -4.30522       -2.07642
C          2.78165       -3.55074        2.60496
C          0.99461       -4.48965        4.08387
C          1.94172       -5.84488        2.17966
C         -1.58027       -6.29887        2.53175
H         -1.64885       -6.93251       -0.07385
H         -2.41676       -6.94215       -1.65347
H         -0.80147       -6.25837       -1.46019
H         -3.61567       -5.61636        0.98020
H         -4.19408       -4.15605        0.19061
H         -4.43104       -5.72613       -0.57717
H         -1.69156       -4.05981       -2.56233
H         -3.19069       -4.96894       -2.73875
H         -3.21761       -3.39011       -1.98037
H          3.60049       -4.02262        3.14760
H          3.11134       -3.38525        1.57955
H          2.60729       -2.58174        3.07055
H          1.75396       -4.88136        4.76019
H          0.71652       -3.49383        4.42840
H          0.11526       -5.12430        4.16262
H          2.27193       -5.82518        1.14161
H          2.76053       -6.22610        2.78933
H          1.11928       -6.55203        2.25476
H         -2.37529       -6.96046        2.18832
H         -1.05662       -6.79291        3.35003
H         -2.01342       -5.36364        2.88869
C          4.59741        3.29238       -1.58490
C          3.01119        1.23828       -3.91515
C          4.98224        0.04876       -2.87858
C          2.89745       -1.20036       -3.36789
C          5.36162        2.14313        1.64374
C          3.48867        3.83461        1.69063
C          3.45260        1.83363        3.19348
H          3.37233        1.00081       -4.91536
H          1.92428        1.30792       -3.95618
H          3.39462        2.21873       -3.64344
H          5.36624       -0.26692       -3.84831
H          5.45083        0.99824       -2.63298
H          5.29817       -0.68149       -2.13435
H          1.82880       -1.15700       -3.57271
H          3.38550       -1.52137       -4.28780
H          3.07138       -1.96545       -2.61176
H          5.73000        2.55092        0.70597
H          5.89943        2.63838        2.45181
H          5.61314        1.08335        1.66823
H          4.01379        4.40992        2.45262
H          3.75497        4.24209        0.71835
H          2.41871        3.98641        1.83099
H          4.08667        2.28426        3.95669
H          3.56662        0.75185        3.25958
H          2.42340        2.08639        3.44423
H          5.01169        3.30588       -2.59289
H          3.53531        3.53411       -1.62625
H          5.11813        4.04535       -0.99366
