111
-148.55419806
P         -1.51275        2.72077        0.99726
P         -0.51351       -0.22298        0.43442
C         -1.21670        1.58711        2.38331
C         -0.86268        0.27814        2.13318
C         -0.26420        4.08608        1.01024
C          0.62416        4.01478       -0.21366
C         -1.31814        2.03506        3.68511
H         -1.55290        3.06955        3.87489
C         -1.09353        1.16141        4.73487
H         -1.17686        1.51020        5.75127
C         -0.75756       -0.15450        4.48159
H         -0.57811       -0.83375        5.29868
C         -0.63122       -0.59437        3.17644
H         -0.33565       -1.60908        2.96379
Pd        -1.61598        1.35047       -0.86774
Cl        -2.90864        2.89542       -1.84760
Cl        -1.51734       -0.07529       -2.59944
C         -1.12653        5.36161        1.09218
C         -3.06881        3.70746        1.19990
H          0.02778        4.07059       -1.12662
H          1.34328        4.83694       -0.23428
H          1.18435        3.07839       -0.24652
H         -1.22754        5.78216        0.08230
H         -0.61136        6.13501        1.68160
H         -3.49449        3.80495        0.19309
C         -2.54101        5.07403        1.67138
C         -4.07016        3.04843        2.12467
H          0.31995        3.95445        1.93029
H         -2.50056        5.08162        2.76913
H         -3.24797        5.87215        1.39757
H         -4.98976        3.63350        2.19688
H         -4.33229        2.04771        1.77387
H         -3.66971        2.94649        3.13340
C         -0.72786       -4.73537       -0.13987
C         -1.72391       -3.91020       -0.72265
C         -1.65645       -2.54425       -0.50255
C         -0.60958       -1.99166        0.18688
C          0.41700       -2.77276        0.65092
C          0.40511       -4.14688        0.47746
O         -0.87809       -6.14777       -0.14813
C         -2.86555       -4.47329       -1.58420
H         -2.41659       -1.88560       -0.88488
H          1.23713       -2.28747        1.15224
C          1.59947       -4.97536        0.97615
C          3.65414        1.29570       -0.61153
C          3.22366        1.28975        0.73989
C          1.96770        0.78352        1.02697
C          1.13543        0.35266        0.02792
C          1.50823        0.44816       -1.28634
C          2.74335        0.95813       -1.64499
O          5.00264        1.61374       -0.92379
C          4.10374        1.80962        1.88665
H          1.61843        0.72311        2.04242
H          0.79585        0.14523       -2.03346
C          3.06511        1.14838       -3.13546
C         -3.30082       -3.44145       -2.65031
C         -2.41724       -5.73626       -2.34216
C         -4.07128       -4.79354       -0.68835
C          1.82609       -6.21074        0.08594
C          2.90073       -4.14161        0.93003
C          1.34623       -5.40851        2.42803
C         -1.59462       -6.66092        0.96774
H         -4.01181       -3.88204       -3.34872
H         -3.78804       -2.57744       -2.20131
H         -2.44264       -3.09020       -3.22264
H         -3.20379       -6.09567       -3.00519
H         -1.53394       -5.52809       -2.94502
H         -2.17048       -6.54365       -1.65727
H         -4.41645       -3.89796       -0.17231
H         -4.90096       -5.18551       -1.27608
H         -3.81578       -5.53279        0.06708
H          1.96121       -5.91468       -0.95379
H          2.71159       -6.76295        0.39966
H          0.98044       -6.89257        0.13135
H          3.04958       -3.70918       -0.05914
H          2.88833       -3.33328        1.65977
H          3.76657       -4.76318        1.15720
H          1.21341       -4.53930        3.07185
H          0.44926       -6.01815        2.50638
H          2.18321       -5.98999        2.81380
H         -1.88928       -5.85100        1.63623
H         -2.48326       -7.18811        0.62113
H         -0.96813       -7.36958        1.50918
C          5.86270        0.48353       -0.99146
C          3.23444        2.31898        3.05906
C          4.99644        0.66944        2.39870
C          4.96897        2.99460        1.42089
C          1.77781        1.46563       -3.93172
C          4.02465        2.33294       -3.34982
C          3.68211       -0.14348       -3.69151
H          2.50386        3.04863        2.71163
H          2.70178        1.50576        3.54999
H          3.85174        2.80000        3.81741
H          5.64842        0.29662        1.61255
H          5.62321        1.00490        3.22459
H          4.39076       -0.16527        2.75105
H          5.54821        3.40575        2.24725
H          5.66960        2.69282        0.64605
H          4.34396        3.78979        1.01565
H          2.01502        1.73099       -4.96159
H          1.10437        0.61090       -3.96988
H          1.24217        2.30315       -3.48540
H          4.20000        2.50836       -4.41092
H          3.61060        3.24412       -2.91917
H          4.98944        2.15241       -2.88270
H          4.60176       -0.39760       -3.16973
H          3.91287       -0.04124       -4.75155
H          2.99329       -0.97987       -3.57489
H          6.69064        0.61433       -0.29478
H          5.31603       -0.42650       -0.74080
H          6.27454        0.39507       -1.99652
