171
-217.84502789
P         -1.60905        0.38879       -0.36785
P          1.62978       -0.44597       -0.29286
C         -0.84214        1.29545       -1.71519
C          0.90308       -1.43392       -1.60660
C         -0.05193        0.63258       -2.64699
C          0.58904        1.38487       -3.64978
C          0.39579        2.75559       -3.69553
C         -0.40638        3.39165       -2.77185
C         -1.02029        2.65581       -1.77735
C          1.08767       -2.79470       -1.56847
C          0.48144       -3.60577       -2.50726
C         -0.32488       -3.04402       -3.47434
C         -0.52449       -1.67474       -3.53110
C          0.11471       -0.84551       -2.58949
Cl         1.51482        0.31807        2.88916
Cl        -1.71406       -0.49126        2.72104
C         -1.41197       -1.11070       -4.58517
C          1.44656        0.72801       -4.67436
H         -0.55448        4.45778       -2.82574
H         -1.64494        3.14476       -1.04756
H          1.70816       -3.22648       -0.80015
H          0.63319       -4.67237       -2.47842
H          0.88225        3.32605       -4.46873
H         -0.81413       -3.67274       -4.19915
C         -3.93633       -3.26737       -1.64868
C         -2.92975       -3.41061       -0.70231
C         -2.22343       -2.27401       -0.33082
C         -2.50452       -1.06212       -0.90987
C         -3.49020       -0.93907       -1.85807
C         -4.23467       -2.04798       -2.24404
H         -4.52048       -4.12890       -1.91464
H         -1.45568       -2.32095        0.42166
H         -3.67902        0.03256       -2.28210
C         -4.31020        3.03490        2.13755
C         -4.87819        2.00177        1.40237
C         -4.03319        1.21025        0.63565
C         -2.68452        1.46138        0.59808
C         -2.14127        2.48817        1.32957
C         -2.94355        3.28805        2.13262
H         -4.95554        3.65143        2.73426
H         -4.42018        0.38185        0.07010
H         -1.07911        2.65454        1.28097
C          4.43587       -2.85128        2.33399
C          3.08277       -3.17018        2.33676
C          2.24400       -2.44615        1.50015
C          2.74089       -1.43274        0.71928
C          4.07744       -1.12135        0.74007
C          4.95706       -1.83275        1.54556
H          5.10668       -3.39929        2.96842
H          1.18898       -2.66033        1.47091
H          4.42665       -0.30677        0.13106
C          3.85920        3.28553       -1.53566
C          2.90131        3.37500       -0.53291
C          2.20853        2.22056       -0.19554
C          2.46756        1.03735       -0.84088
C          3.42108        0.96205       -1.82609
C          4.14149        2.09345       -2.19221
H          4.41905        4.16103       -1.80546
H          1.47839        2.23717        0.59552
H          3.60796        0.00891       -2.29074
Pd        -0.02931       -0.01870        1.30060
C         -3.87122       -5.17957        0.79591
C         -2.66017       -4.77983       -0.06468
C         -1.40663       -4.74594        0.83069
C         -2.43609       -5.83012       -1.16905
H         -3.70901       -6.14524        1.27437
H         -4.04808       -4.44019        1.57688
H         -4.77564       -5.25111        0.19253
H         -1.19739       -5.73323        1.24213
H         -0.53374       -4.42940        0.26074
H         -1.53930       -4.06286        1.66926
H         -2.19713       -6.80259       -0.73891
H         -3.32248       -5.95215       -1.79000
H         -1.61136       -5.53650       -1.81729
C         -5.22674       -2.98797       -4.35978
C         -5.40142       -1.94708       -3.23714
C         -5.47958       -0.54808       -3.87915
C         -6.71818       -2.21759       -2.48692
H         -4.28506       -2.83888       -4.88604
H         -5.23286       -4.00375       -3.96695
H         -6.03348       -2.91166       -5.08864
H         -6.29168       -0.50027       -4.60449
H         -5.66592        0.21969       -3.12854
H         -4.55458       -0.30369       -4.40077
H         -6.85732       -1.49803       -1.68076
H         -7.57336       -2.14240       -3.15834
H         -6.72288       -3.21480       -2.04797
C         -6.81471        0.58836        0.54935
C         -6.39061        1.74782        1.47287
C         -7.14441        3.01705        1.03462
C         -6.77406        1.38669        2.91925
H         -6.32979       -0.34344        0.84001
H         -7.89157        0.42771        0.59873
H         -6.55987        0.80263       -0.48840
H         -6.86153        3.30148        0.02125
H         -8.22214        2.85554        1.05137
H         -6.92438        3.85721        1.69205
H         -6.53667        2.19887        3.60542
H         -7.84117        1.18083        3.00090
H         -6.23214        0.50088        3.25007
C         -3.22345        4.83388        4.12824
C         -2.32544        4.43986        2.93844
C         -2.15409        5.65438        2.01156
C         -0.95138        4.02074        3.50217
H         -2.73475        5.58370        4.75029
H         -4.16800        5.25966        3.79171
H         -3.43888        3.96823        4.75441
H         -1.53103        5.40322        1.15427
H         -3.11926        5.98979        1.63243
H         -1.68801        6.48709        2.53798
H         -0.54732        4.79248        4.15703
H         -1.03524        3.09932        4.07810
H         -0.22419        3.85771        2.70907
C          2.06034       -5.45177        2.30981
C          2.49453       -4.28484        3.21292
C          1.27566       -3.74248        3.98664
C          3.52113       -4.80552        4.23732
H          1.61414       -6.25563        2.89501
H          1.32828       -5.12377        1.57378
H          2.91441       -5.85926        1.76918
H          1.55447       -2.87338        4.58201
H          0.47404       -3.44143        3.31404
H          0.87283       -4.49883        4.65985
H          3.07371       -5.56116        4.88293
H          4.37595       -5.26473        3.74149
H          3.88224       -3.99705        4.87281
C          7.27046       -2.75630        1.23507
C          6.45532       -1.50279        1.60301
C          6.81643       -1.04566        3.02782
C          6.82635       -0.37575        0.61805
H          7.00503       -3.10858        0.23844
H          8.33918       -2.54270        1.24400
H          7.08846       -3.56907        1.93708
H          6.23182       -0.17010        3.30965
H          6.61598       -1.82978        3.75704
H          7.87224       -0.78485        3.09873
H          7.89446       -0.16259        0.65797
H          6.58363       -0.65627       -0.40677
H          6.29816        0.54675        0.85872
C          1.14525        5.08270       -0.01533
C          2.60834        4.67546        0.22773
C          3.52011        5.82768       -0.23513
C          2.84014        4.44473        1.73341
H          0.89406        5.98726        0.53814
H          0.97165        5.27514       -1.07337
H          0.46213        4.29458        0.29667
H          3.30186        6.73972        0.32037
H          4.57039        5.58570       -0.07335
H          3.37312        6.04370       -1.29320
H          3.86946        4.14022        1.92139
H          2.64695        5.35403        2.30222
H          2.18729        3.66448        2.12197
C          4.97970        3.07836       -4.34768
C          5.26487        2.04895       -3.23797
C          5.38840        0.65425       -3.88206
C          6.60171        2.38693       -2.55223
H          5.74903        3.04249       -5.11884
H          4.01894        2.88220       -4.82155
H          4.95470        4.09288       -3.95206
H          5.63132       -0.10246       -3.13631
H          4.46218        0.36554       -4.37728
H          6.18036        0.64306       -4.63080
H          7.42618        2.34951       -3.26402
H          6.58122        3.38535       -2.11680
H          6.81401        1.67828       -1.75216
H         -0.92758       -1.14353       -5.56204
H          2.28815        1.36519       -4.94626
H         -1.67803       -0.07434       -4.37325
H         -2.33939       -1.67939       -4.65251
H          0.87901        0.52159       -5.58263
H          1.85157       -0.21594       -4.30703
