111
-148.54616102
P         -2.59688        2.09862        0.72167
P          0.09227        0.44222        0.44295
C         -1.50937        1.87721        2.16273
C         -0.32272        1.19117        2.02486
C         -3.63950        3.61844        0.95831
C         -3.63742        4.51542       -0.25833
C         -1.87287        2.36703        3.40200
H         -2.81452        2.87632        3.52101
C         -1.03861        2.18309        4.49122
H         -1.32361        2.56760        5.45694
C          0.15518        1.50396        4.34435
H          0.80349        1.35807        5.19264
C          0.51127        1.00028        3.10666
H          1.43006        0.44952        2.97707
Pd        -1.27195        1.49999       -1.09928
Cl        -2.42158        2.88790       -2.42048
Cl         0.02704        0.65435       -2.72962
C         -5.02881        3.03328        1.28496
C         -3.92501        0.80594        0.66241
H         -2.62289        4.81567       -0.52962
H         -4.06727        3.99580       -1.11602
H         -4.22696        5.42020       -0.09318
H         -5.81008        3.72897        0.94541
H         -5.15674        2.95403        2.37448
H         -3.79136        0.25442       -0.27857
C         -5.22587        1.63336        0.64097
C         -3.81787       -0.13303        1.84426
H         -3.22264        4.15861        1.81848
H         -6.02303        1.07826        1.15647
H         -5.57329        1.75617       -0.39538
H         -4.59508       -0.90055        1.82007
H         -2.84911       -0.63563        1.86333
H         -3.92142        0.41540        2.78242
C         -1.16549       -3.93712        0.34867
C         -1.00136       -3.28425        1.59757
C         -0.60375       -1.95764        1.59780
C         -0.45499       -1.26472        0.42525
C         -0.71972       -1.86250       -0.77791
C         -1.11069       -3.18683       -0.85311
O         -1.34302       -5.34544        0.30082
C         -1.21669       -4.00124        2.93959
H         -0.39683       -1.44598        2.52092
H         -0.59032       -1.27581       -1.67001
C         -1.42458       -3.78992       -2.23056
C          4.49669        0.70872       -0.69642
C          3.74184       -0.44940       -1.01932
C          2.40578       -0.47754       -0.66009
C          1.83483        0.54684        0.04824
C          2.58637        1.61648        0.45946
C          3.93369        1.70461        0.14664
O          5.77606        0.90565       -1.27657
C          4.30976       -1.67898       -1.74787
H          1.78520       -1.30762       -0.94991
H          2.10514        2.39201        1.03082
C          4.73857        2.86698        0.75304
C         -1.67866       -3.00281        4.02574
C         -2.31383       -5.07489        2.82324
C          0.10453       -4.64067        3.39237
C         -0.13009       -4.34062       -2.84842
C         -2.48079       -4.90438       -2.12291
C         -2.00288       -2.71193       -3.17642
C         -0.12738       -6.07807        0.20966
H         -2.55417       -2.44570        3.69384
H         -1.94504       -3.52657        4.94351
H         -0.89497       -2.29109        4.28083
H         -2.51173       -5.53934        3.78895
H         -3.24294       -4.63602        2.46099
H         -2.02570       -5.86322        2.13222
H          0.88062       -3.88372        3.50350
H         -0.01438       -5.14586        4.35055
H          0.45686       -5.37195        2.66897
H         -0.31877       -4.77094       -3.83155
H          0.60888       -3.54797       -2.96340
H          0.30909       -5.11300       -2.22144
H         -2.74858       -5.28699       -3.10747
H         -2.11651       -5.74153       -1.53297
H         -3.38621       -4.52961       -1.64673
H         -2.34892       -3.15958       -4.10767
H         -2.84901       -2.20416       -2.71417
H         -1.25745       -1.96345       -3.44064
H         -0.05465       -6.77013        1.04849
H         -0.11735       -6.65898       -0.71238
H          0.72747       -5.40060        0.22142
C          5.71703        1.59501       -2.51419
C          3.84297       -2.96583       -1.02987
C          3.78931       -1.69688       -3.19491
C          5.84788       -1.69778       -1.75099
C          6.25749        2.64123        0.65475
C          4.36580        4.17630        0.03857
C          4.39974        2.99663        2.25500
H          4.12332       -2.94205        0.02277
H          2.76354       -3.09582       -1.08806
H          4.29854       -3.84790       -1.47917
H          4.11646       -0.81489       -3.74182
H          4.14987       -2.57604       -3.72823
H          2.70006       -1.71371       -3.21631
H          6.25119       -0.86963       -2.32881
H          6.23509       -1.61658       -0.73594
H          6.22865       -2.62061       -2.18798
H          6.59007        2.63977       -0.38052
H          6.80593        3.42577        1.17559
H          6.53288        1.68362        1.09525
H          3.29920        4.37926        0.12924
H          4.90578        5.02062        0.46632
H          4.60497        4.12820       -1.02193
H          5.01438        3.76269        2.72707
H          4.58043        2.05480        2.77236
H          3.35896        3.27372        2.41380
H          6.72535        1.70272       -2.91447
H          5.10532        1.03903       -3.22265
H          5.27857        2.58125       -2.37238
