111
-148.55691754
P         -1.60543        2.81182        0.09866
P         -0.59576       -0.17597        0.41464
C         -1.58082        2.03096        1.73745
C         -1.21618        0.70662        1.86238
C         -0.37361        4.18783        0.00320
C          0.72190        3.85735       -0.98801
C         -1.90334        2.76416        2.86149
H         -2.15105        3.80833        2.76202
C         -1.88450        2.16097        4.10719
H         -2.14035        2.73233        4.98453
C         -1.53321        0.83019        4.22790
H         -1.51352        0.36190        5.19823
C         -1.18794        0.10374        3.10269
H         -0.87920       -0.92612        3.18445
Pd        -1.41080        1.04485       -1.37731
Cl        -2.07322        2.46788       -2.97902
Cl        -1.10822       -0.75915       -2.67928
C         -1.23049        5.40875       -0.38848
C         -3.16699        3.74842       -0.23966
H          1.26966        2.96028       -0.69320
H          0.30195        3.67134       -1.97858
H          1.43913        4.67642       -1.07879
H         -1.13513        5.57098       -1.47087
H         -0.83349        6.32152        0.08079
H         -3.39391        3.57517       -1.29981
C         -2.73138        5.20982       -0.03112
C         -4.32426        3.29249        0.62357
H          0.03224        4.30591        1.01650
H         -2.90150        5.48580        1.01858
H         -3.36906        5.88647       -0.62044
H         -5.23922        3.83859        0.38302
H         -4.52100        2.22634        0.48976
H         -4.11596        3.45598        1.68117
C         -0.74988       -4.70264        0.88843
C          0.30467       -3.95584        1.47731
C          0.29108       -2.57849        1.33139
C         -0.66989       -1.95462        0.57852
C         -1.61609       -2.68160       -0.09472
C         -1.65652       -4.06310        0.00105
O         -0.94137       -6.06281        1.24303
C          1.47636       -4.58596        2.24895
H          1.04335       -1.97106        1.80677
H         -2.31991       -2.15510       -0.71649
C         -2.65445       -4.81844       -0.89349
C          3.64429        1.30250       -0.34357
C          2.99952        0.48002       -1.30531
C          1.71391        0.04461       -1.03574
C          1.10354        0.33131        0.15577
C          1.76509        1.02306        1.13537
C          3.05462        1.48568        0.93577
O          4.82540        2.00755       -0.69058
C          3.63063        0.05463       -2.64064
H          1.14665       -0.48811       -1.77994
H          1.25360        1.21965        2.06176
C          3.75766        2.17132        2.11844
C          1.58259       -6.10274        2.01408
C          2.80462       -3.96032        1.76675
C          1.30527       -4.30950        3.75164
C         -4.08010       -4.61690       -0.35503
C         -2.57205       -4.26303       -2.33309
C         -2.34462       -6.32336       -0.97502
C         -1.79501       -6.22255        2.36353
H          1.63504       -6.32374        0.94859
H          2.47217       -6.51315        2.49133
H          0.72021       -6.62563        2.42094
H          2.91046       -4.06763        0.68755
H          2.86523       -2.90013        2.00691
H          3.65737       -4.44802        2.23836
H          1.26742       -3.23851        3.94876
H          0.38428       -4.74946        4.12958
H          2.13525       -4.72661        4.32138
H         -4.17849       -5.01274        0.65409
H         -4.33893       -3.55901       -0.32431
H         -4.80986       -5.12273       -0.98671
H         -1.55071       -4.31927       -2.70843
H         -3.21040       -4.83325       -3.00735
H         -2.89116       -3.22370       -2.38642
H         -3.00072       -6.82180       -1.68818
H         -1.31414       -6.48694       -1.28845
H         -2.48022       -6.80630       -0.01014
H         -2.76911       -5.78202        2.15682
H         -1.91693       -7.28524        2.57407
H         -1.36440       -5.73024        3.23407
C          4.56068        3.28294       -1.25213
C          3.39492       -1.45656       -2.85930
C          2.96942        0.83744       -3.78776
C          5.15163        0.28225       -2.66894
C          3.56822        1.31618        3.39124
C          5.27314        2.31603        1.89653
C          3.13340        3.55822        2.34674
H          3.78241       -2.03160       -2.01875
H          2.33707       -1.68993       -2.96761
H          3.89688       -1.80125       -3.76294
H          1.89415        0.66246       -3.80997
H          3.12815        1.90829       -3.67693
H          3.37824        0.53554       -4.75157
H          5.62926       -0.20760       -1.82114
H          5.59128       -0.11455       -3.58371
H          5.39259        1.34149       -2.62120
H          2.52245        1.25715        3.68829
H          3.93029        0.30119        3.22944
H          4.11986        1.74041        4.22980
H          5.76400        2.71344        2.78462
H          5.72093        1.35060        1.66346
H          5.48943        2.99103        1.07211
H          3.60436        4.06337        3.18956
H          2.06783        3.47529        2.55874
H          3.24805        4.19132        1.46898
H          5.49962        3.73899       -1.56652
H          3.90215        3.18381       -2.11342
H          4.07983        3.92451       -0.51580
