105
-153.06634892
Cl        -0.04545        1.82484        3.12428
Pd        -0.49443        1.26848        0.99102
P         -1.14235        0.50517       -1.14410
N         -0.79245       -1.02096       -1.95093
C          0.15780       -1.99009       -1.62838
C          0.32109       -2.48137       -0.30838
C          1.29920       -3.46498       -0.05471
C          1.44474       -4.00463        1.34847
C          2.28600       -5.28585        1.45805
C          3.54502       -5.19053        0.59170
C          3.17092       -4.98342       -0.88333
C          2.09360       -3.94996       -1.09753
C          1.88114       -3.48545       -2.38939
C          0.92987       -2.53551       -2.65329
H          0.78651       -2.17656       -3.65751
H          2.48514       -3.87758       -3.19013
H          4.05722       -4.69565       -1.46336
H          4.15837       -4.34761        0.93423
H          2.54894       -5.49274        2.50507
H          1.89039       -3.22175        1.97277
C         -0.66231       -2.14135        0.74787
C         -0.22109       -1.56117        1.96856
C         -1.13718       -1.43905        3.01764
C         -2.43805       -1.84433        2.87022
C         -2.89143       -2.40160        1.68079
C         -4.32911       -2.85906        1.61537
C         -4.81051       -3.23999        0.20601
C         -3.73602       -4.03519       -0.53994
C         -2.44588       -3.21256       -0.66948
C         -2.00219       -2.55502        0.61480
H         -1.63328       -3.84652       -1.04572
H         -4.09974       -4.35271       -1.52748
H         -5.04373       -2.33053       -0.36118
H         -4.96863       -2.07280        2.03577
H         -3.12911       -1.73390        3.68877
H         -0.81232       -0.98909        3.93935
N          1.07368       -1.04611        2.12840
P          1.59276        0.17955        0.97198
C          2.63008       -0.36951       -0.37075
C          2.43243        0.17453       -1.61493
C          3.26862       -0.17960       -2.65771
C          4.31393       -1.07092       -2.45038
C          4.51010       -1.58872       -1.17694
C          3.67131       -1.23381       -0.13569
H          3.82097       -1.62525        0.85797
H          5.32223       -2.27485       -1.00746
C          5.20943       -1.47739       -3.56824
H          3.10910        0.23212       -3.63941
H          1.61881        0.86380       -1.76317
C          2.49187        1.52223        1.75716
C          3.22827        1.29537        2.89473
C          3.92084        2.33885        3.48183
C          3.87780        3.61364        2.93293
C          3.14481        3.81631        1.77135
C          2.45373        2.77198        1.18450
H          1.88149        2.92687        0.28273
H          3.11710        4.79767        1.32947
C          4.63850        4.73313        3.55382
H          4.50030        2.16848        4.37306
H          3.26591        0.30415        3.31654
H          1.24426       -0.61769        3.02896
H         -1.07391       -0.92251       -2.91815
C         -0.59216        1.86418       -2.18898
C         -0.77611        3.16308       -1.77922
C         -0.32942        4.20887       -2.56368
C          0.29928        3.96213       -3.77610
C          0.47695        2.64548       -4.17792
C          0.02676        1.60260       -3.38938
H          0.17758        0.58251       -3.70002
H          0.97508        2.44183       -5.11045
C          0.80991        5.08581       -4.60926
H         -0.46608        5.22567       -2.23714
H         -1.27682        3.35325       -0.84498
C         -2.93641        0.57547       -1.09584
C         -3.60851        0.93857       -2.23872
C         -4.99123        0.98685       -2.23839
C         -5.70823        0.68082       -1.08975
C         -5.01126        0.30722        0.05053
C         -3.63012        0.24761        0.04290
H         -3.08526       -0.03631        0.92856
H         -5.55762        0.06648        0.94622
C         -7.19685        0.71132       -1.09044
H         -5.52203        1.26632       -3.13237
H         -3.04854        1.18390       -3.12751
Cl        -2.30711        2.60584        0.96328
H          2.83364       -5.93301       -1.31571
H          1.68569       -6.14405        1.13085
H          4.17405       -6.08337        0.71621
H          0.44420       -4.17729        1.76469
H         -3.52309       -4.96150        0.00824
H         -2.58581       -2.43179       -1.42582
H         -4.44738       -3.71807        2.28669
H         -5.75188       -3.80552        0.25310
H          6.24671       -1.22131       -3.34794
H          5.15608       -2.55421       -3.73523
H          4.93391       -0.98170       -4.50005
H          5.64587        4.79382        3.13975
H          4.14388        5.68950        3.37848
H          4.72508        4.59926        4.63298
H          1.83899        5.32947       -4.34168
H          0.78896        4.83090       -5.66976
H          0.20514        5.98347       -4.47309
H         -7.57600        1.43396       -1.81434
H         -7.60411       -0.26779       -1.34642
H         -7.58437        0.99147       -0.10993
