105
-153.06460705
Cl         0.09402        3.56788        1.87462
Pd        -0.44499        1.94504        0.41488
P         -1.04841        0.36878       -1.27269
N         -1.02501       -1.40516       -1.32390
C          0.00236       -2.36092       -1.26174
C          0.12660       -3.11567       -0.06843
C          1.15162       -4.06563        0.06281
C          1.33721       -4.75460        1.39123
C          2.23806       -5.99823        1.32624
C          3.49886       -5.71842        0.50046
C          3.13580       -5.30040       -0.93410
C          2.02138       -4.28689       -1.00844
C          1.86979       -3.54793       -2.17962
C          0.88581       -2.59972       -2.30922
H          0.79194       -2.03072       -3.21584
H          2.54844       -3.72682       -2.99642
H          4.01846       -4.89566       -1.44569
H          4.07327       -4.91485        0.97850
H          2.50240       -6.34295        2.33590
H          1.75857       -4.03037        2.09882
C         -0.67042       -2.63580        1.09229
C         -0.22036       -1.43061        1.67989
C         -1.02425       -0.77175        2.60213
C         -2.25001       -1.29038        2.93647
C         -2.72890       -2.45970        2.34844
C         -4.10743       -2.94109        2.72140
C         -4.73073       -3.87084        1.66860
C         -3.73463       -4.95763        1.24840
C         -2.45666       -4.33922        0.65747
C         -1.94193       -3.13890        1.41271
H         -1.66117       -5.09243        0.60183
H         -4.19764       -5.65367        0.53486
H         -5.01651       -3.28113        0.78826
H         -4.75584       -2.07240        2.89349
H         -2.86909       -0.77746        3.65296
H         -0.67462        0.14953        3.03346
N          0.97011       -0.90042        1.21691
P          1.43128        0.77920        1.23923
C          2.41065        1.10068       -0.22710
C          2.13470        0.35799       -1.34916
C          2.81835        0.60404       -2.52421
C          3.77959        1.60322       -2.58178
C          4.03646        2.35074       -1.43915
C          3.35420        2.09888       -0.26234
H          3.54045        2.68454        0.62341
H          4.76763        3.13989       -1.48000
C          4.47282        1.90782       -3.86361
H          2.58953        0.03900       -3.41144
H          1.34770       -0.37570       -1.31417
C          2.43052        1.03176        2.70672
C          2.42389        2.21313        3.40768
C          3.23362        2.36305        4.51691
C          4.06338        1.32941        4.92993
C          4.05029        0.13821        4.21662
C          3.23796       -0.00711        3.10540
H          3.22315       -0.93036        2.54739
H          4.67840       -0.67545        4.53677
C          4.91718        1.48044        6.14070
H          3.22387        3.28541        5.07217
H          1.77386        3.00939        3.08943
H          1.55475       -1.44998        0.60060
H         -1.69418       -1.51006       -0.57017
C         -0.50526        1.03930       -2.84106
C         -0.52115        0.21131       -3.93735
C         -0.05812        0.67315       -5.15661
C          0.42473        1.96897       -5.28160
C          0.39963        2.80111       -4.17046
C         -0.06743        2.33787       -2.95474
H         -0.10523        2.99046       -2.09861
H          0.74888        3.81526       -4.26315
C          0.91806        2.47132       -6.59348
H         -0.06564        0.02716       -6.01780
H         -0.90317       -0.79140       -3.83239
C         -2.83011        0.60671       -1.14171
C         -3.55617        1.10640       -2.19550
C         -4.92461        1.26261       -2.07296
C         -5.57446        0.90842       -0.89800
C         -4.82197        0.40903        0.15616
C         -3.45369        0.25677        0.03136
H         -2.86835       -0.13719        0.84560
H         -5.31309        0.14268        1.07645
C         -7.04387        1.10197       -0.75498
H         -5.49731        1.66487       -2.89105
H         -3.05030        1.37814       -3.10747
Cl        -2.05817        3.29698       -0.38787
H          2.84142       -6.18407       -1.51275
H          1.68177       -6.82616        0.86917
H          4.16395       -6.59360        0.49667
H          0.35354       -5.01818        1.79886
H         -3.47289       -5.56570        2.12337
H         -2.64130       -4.03786       -0.38071
H         -4.04810       -3.45970        3.68563
H         -5.66354       -4.31734        2.04114
H          3.89849        2.62500       -4.45176
H          5.46205        2.33203       -3.68647
H          4.60109        1.00665       -4.46489
H          4.37318        1.18159        7.03772
H          5.81425        0.86376        6.06982
H          5.23699        2.51538        6.26998
H          1.35858        1.66581       -7.18274
H          0.10278        2.90621       -7.17317
H          1.68229        3.23816       -6.45907
H         -7.26629        2.09446       -0.36086
H         -7.55009        0.99987       -1.71589
H         -7.47364        0.36531       -0.07472
