45
-71.81774038
C          0.43400        0.37910        2.51355
P          0.99906        0.54277        0.78585
P         -1.60706        0.43166       -1.00416
C         -2.37768        0.26519       -2.64840
Cl         1.47209       -2.54589        0.49504
H         -0.65143        0.35334        2.54597
H         -1.63829        0.44929       -3.42257
Cl        -0.99103       -2.64508       -1.77880
C          0.36751        2.05080        0.02495
C         -0.75782        2.00643       -0.76921
C         -1.25243        3.16337       -1.33536
C         -0.60621        4.36700       -1.11392
C          0.52661        4.40957       -0.32413
C          1.01469        3.24831        0.24889
H         -2.14308        3.12026       -1.94093
H         -0.98904        5.27189       -1.55647
H          1.02976        5.34681       -0.15212
H          1.89692        3.26509        0.86858
Pd        -0.01631       -1.14513       -0.43146
H         -3.19033        0.97808       -2.75438
H          0.78311        1.22225        3.10263
H         -2.77209       -0.73962       -2.76986
C         -4.46651       -0.38056        2.43001
C         -4.17545       -1.37880        1.52061
C         -3.31501       -1.12086        0.46915
C         -2.76166        0.13121        0.33214
C         -3.03841        1.12652        1.24059
C         -3.89769        0.87105        2.29394
H         -5.13547       -0.58036        3.25110
H         -4.61061       -2.35818        1.63303
H         -3.04363       -1.89421       -0.23224
H         -2.57838        2.09463        1.12507
H         -4.12019        1.64687        3.00798
C          5.51215        0.28543        0.27662
C          4.98204        0.51660        1.53063
C          3.61097        0.59606        1.69655
C          2.78169        0.44290        0.60861
C          3.30516        0.21714       -0.64407
C          4.67614        0.13585       -0.81209
H          6.58022        0.22058        0.14758
H          5.63491        0.63335        2.38004
H          3.18597        0.77594        2.67068
H          2.63886        0.10275       -1.48488
H          5.08907       -0.04645       -1.79061
H          0.82033       -0.54127        2.94221
