72
-98.10605259
Fe        -0.00531        2.77934       -0.03481
P          1.86712       -0.03779       -0.06925
P         -1.86525       -0.03482        0.06954
C          1.43514        1.58421        0.66806
C          0.43701        1.79991        1.70003
C          0.35456        3.22728        1.95151
C          1.32714        3.88909        1.10110
C          2.02024        2.87244        0.32874
C         -1.41746        1.56680       -0.70512
C         -2.01760        2.86239       -0.42407
C         -1.32640        3.85228       -1.23223
C         -0.34370        3.16538       -2.05025
C         -0.41298        1.74954       -1.73774
C          3.22910       -0.77180        0.96081
C          4.42345        0.08851        0.51407
C          2.91399        0.27024       -1.57804
C          4.33396        0.46881       -0.99327
C         -3.25192       -0.75656       -0.93619
C         -4.42906        0.12152       -0.47946
C         -2.88616        0.31487        1.58792
C         -4.31633        0.50515        1.02485
H         -0.15426        1.02280        2.18185
H         -0.30886        3.71410        2.66989
H          1.52577        4.96267        1.07022
H          2.80985        3.04519       -0.40492
H         -2.81805        3.05681        0.29239
H          0.18418        0.95747       -2.18748
Cl         1.55894       -3.05545       -0.34116
Cl        -1.61692       -3.00269        0.34134
Pd         0.00688       -1.46664        0.03582
H          3.36947       -1.80688        0.62814
C          2.95780       -0.73446        2.46611
H          2.54455        1.18885       -2.04934
C          2.86088       -0.88886       -2.57129
H          5.37232       -0.42326        0.73855
H          4.43341        1.00215        1.12660
H          4.67387        1.50353       -1.14795
H          5.03904       -0.14919       -1.56649
H         -1.53571        4.92404       -1.24813
H          0.32006        3.62831       -2.78368
H          3.91671       -0.70003        3.00183
H          3.67887       -0.77709       -3.29673
H         -3.40288       -1.78797       -0.59744
C         -2.99828       -0.72938       -2.44318
H         -2.50541        1.24423        2.02808
C         -2.81895       -0.81870        2.61017
H         -5.38728       -0.37830       -0.69075
H         -4.43418        1.03305       -1.09505
H         -4.65937        1.53815        1.18386
H         -5.00876       -0.11599        1.60984
H         -3.96298       -0.73382       -2.96946
H         -3.03324       -1.76378        2.09419
C          2.14538       -1.92267        2.95769
H          1.20795       -2.01754        2.41226
H          2.68762       -2.85842        2.80909
H          1.90469       -1.84670        4.02044
C          1.54149       -1.00982       -3.31216
H          1.33103       -0.11438       -3.90002
H          1.53205       -1.86103       -3.99678
H          0.71644       -1.14563       -2.61562
C         -2.14996       -1.89534       -2.92550
H         -1.20751       -1.94969       -2.38342
H         -2.65875       -2.84708       -2.76101
H         -1.91782       -1.82496       -3.99052
C         -1.49646       -0.91086        3.35038
H         -0.67019       -1.05381        2.65667
H         -1.29392       -0.00089        3.91839
H         -1.47788       -1.74649        4.05377
H          2.45734        0.21013        2.71443
H          3.08007       -1.81902       -2.03076
H         -2.53150        0.22794       -2.70801
H         -3.63495       -0.69507        3.33593
