171
-217.84613888
P         -1.56611        0.39457       -0.31312
P          1.58091       -0.42302       -0.27588
C         -0.82272        1.34357       -1.64227
C          0.85511       -1.38779       -1.60600
C         -0.07154        0.70131       -2.61970
C          0.54684        1.47953       -3.61727
C          0.37388        2.85397       -3.60756
C         -0.38504        3.46937       -2.63431
C         -0.97953        2.70771       -1.64786
C          1.02651       -2.75017       -1.57864
C          0.43383       -3.54375       -2.54077
C         -0.34601       -2.96227       -3.51811
C         -0.53505       -1.59070       -3.56106
C          0.09163       -0.77855       -2.59605
Cl         1.58585        0.44190        2.90714
Cl        -1.58972       -0.45020        2.94219
C         -1.40397       -1.00939       -4.62106
C          1.36560        0.85074       -4.68984
H         -0.51605        4.53899       -2.64372
H         -1.57136        3.17906       -0.88023
H          1.62366       -3.19532       -0.79905
H          0.57528       -4.61197       -2.52225
H          0.84508        3.44450       -4.37513
H         -0.82562       -3.57778       -4.26047
C         -3.94661       -3.18182       -1.71504
C         -2.95258       -3.37524       -0.76418
C         -2.22180       -2.26719       -0.35428
C         -2.46595       -1.03479       -0.90638
C         -3.43737       -0.86307       -1.86204
C         -4.20795       -1.94093       -2.28208
H         -4.55221       -4.02035       -2.00523
H         -1.46497       -2.35150        0.40610
H         -3.59921        0.12431       -2.26047
C         -4.38772        2.88134        2.23745
C         -4.90392        1.85422        1.45644
C         -4.01740        1.12555        0.67679
C         -2.67688        1.41980        0.67044
C         -2.18461        2.43949        1.44668
C         -3.03045        3.18259        2.26019
H         -5.05763        3.45589        2.84733
H         -4.37839        0.30959        0.07611
H         -1.12817        2.64495        1.42973
C          4.45813       -2.89022        2.21957
C          3.09689       -3.14061        2.33739
C          2.22824       -2.39827        1.54682
C          2.71215       -1.43683        0.69366
C          4.06100       -1.19881        0.59729
C          4.96610       -1.92817        1.35679
H          5.14248       -3.45121        2.82919
H          1.16433       -2.54792        1.60888
H          4.40256       -0.42455       -0.06565
C          3.82975        3.27377       -1.58792
C          2.88860        3.38359       -0.57277
C          2.20202        2.23571       -0.19853
C          2.43727        1.04562       -0.84012
C          3.36480        0.95444       -1.84942
C          4.09046        2.07456       -2.23897
H          4.39283        4.14579       -1.86530
H          1.49358        2.25351        0.61111
H          3.52618       -0.00196       -2.31694
Pd        -0.01793       -0.01381        1.39373
C         -2.51108       -5.79097       -1.29750
C         -2.72620       -4.76922       -0.16488
C         -3.95989       -5.16473        0.66539
C         -1.48703       -4.79353        0.74952
H         -3.39018       -5.87111       -1.93543
H         -1.66894       -5.49923       -1.92383
H         -2.30380       -6.78190       -0.89390
H         -4.85633       -5.19713        0.04695
H         -3.82798       -6.14758        1.11746
H         -4.13159       -4.44451        1.46522
H         -1.31145       -5.79692        1.13722
H         -0.59502       -4.48652        0.20396
H         -1.61763       -4.12935        1.60358
C         -6.69618       -1.98837       -2.50863
C         -5.37363       -1.77864       -3.26809
C         -5.25759       -2.82064       -4.39745
C         -5.38759       -0.37439       -3.90359
H         -6.74535       -2.98670       -2.07486
H         -6.79346       -1.26774       -1.69703
H         -7.55201       -1.86783       -3.17254
H         -4.30927       -2.72044       -4.92354
H         -5.32030       -3.83718       -4.01175
H         -6.05937       -2.69511       -5.12497
H         -4.45192       -0.16947       -4.42294
H         -6.19589       -0.28655       -4.62942
H         -5.54017        0.39808       -3.15040
C         -7.21721        2.37195        2.38710
C         -6.39567        1.49273        1.42524
C         -6.56959        0.01932        1.84117
C         -6.93268        1.69318       -0.00394
H         -8.27116        2.09559        2.35841
H         -6.87325        2.25543        3.41467
H         -7.14578        3.42482        2.11487
H         -7.62277       -0.26058        1.85515
H         -6.05716       -0.65176        1.15277
H         -6.16126       -0.14930        2.83737
H         -7.99250        1.44578       -0.06182
H         -6.80901        2.72879       -0.32003
H         -6.40293        1.06210       -0.71629
C         -2.06524        5.48856        2.22171
C         -2.45153        4.30838        3.12913
C         -1.20634        3.79533        3.88102
C         -3.47035        4.79998        4.17619
H         -1.61692        6.29692        2.79905
H         -1.35057        5.17930        1.46102
H         -2.94237        5.88361        1.70949
H         -1.45271        2.91739        4.47779
H         -0.40751        3.51798        3.19573
H         -0.81263        4.55968        4.55060
H         -3.02351        5.55163        4.82684
H         -4.33826        5.25630        3.70102
H         -3.81164        3.97692        4.80387
C          3.21184       -5.54893        3.03445
C          2.59663       -4.17460        3.35553
C          1.06250       -4.30744        3.32152
C          3.01427       -3.73119        4.76953
H          2.85490       -6.30794        3.73039
H          2.94448       -5.86338        2.02572
H          4.29885       -5.52255        3.09988
H          0.57941       -3.35995        3.55998
H          0.72605       -4.63213        2.33824
H          0.72013       -5.04421        4.04797
H          2.65424       -4.43310        5.52146
H          4.09798       -3.66979        4.86142
H          2.60301       -2.74838        4.99941
C          6.82671       -0.58886        0.25263
C          6.47918       -1.67909        1.28579
C          7.19212       -2.98129        0.87758
C          6.98151       -1.22046        2.66685
H          6.36412        0.36238        0.51548
H          7.90379       -0.42901        0.20543
H          6.49124       -0.87363       -0.74442
H          8.26827       -2.82828        0.79801
H          7.02155       -3.77238        1.60678
H          6.82863       -3.33203       -0.08818
H          8.05158       -1.01489        2.64472
H          6.46866       -0.31094        2.97918
H          6.80338       -1.98166        3.42550
C          3.95758        5.14524        0.85144
C          2.66530        4.73121        0.12561
C          1.52631        4.64415        1.15835
C          2.29024        5.79678       -0.92080
H          4.24457        4.39152        1.58451
H          4.78365        5.26169        0.15073
H          3.82544        6.09242        1.37409
H          1.77021        3.93970        1.95322
H          1.34524        5.61397        1.62147
H          0.60112        4.32276        0.68171
H          1.39066        5.50428       -1.46086
H          2.10018        6.75925       -0.44610
H          3.08736        5.93724       -1.64966
C          4.93695        3.05929       -4.39404
C          5.20086        2.00971       -3.29763
C          5.27784        0.61901       -3.95734
C          6.55295        2.30328       -2.62176
H          3.96518        2.90088       -4.85900
H          4.95105        4.07022       -3.98889
H          5.69589        3.00559       -5.17441
H          5.51323       -0.15154       -3.22357
H          4.33657        0.35899       -4.43973
H          6.05709        0.59514       -4.71898
H          6.56169        3.29539       -2.17163
H          6.75560        1.57813       -1.83435
H          7.36878        2.25542       -3.34281
H         -1.66689        0.02608       -4.40108
H          0.78162        0.72524       -5.60249
H         -2.33349       -1.57209       -4.70812
H         -0.90622       -1.03482       -5.59141
H          1.73440       -0.12988       -4.38600
H          2.23027        1.46808       -4.93236
