171
-217.84688488
P         -1.58484        0.36820       -0.32360
P          1.59434       -0.46800       -0.28166
C         -0.84749        1.28009       -1.68330
C          0.87002       -1.44488       -1.60676
C         -0.07582        0.62899       -2.63859
C          0.54203        1.39431       -3.64645
C          0.33766        2.76390       -3.67728
C         -0.44960        3.38725       -2.73231
C         -1.03505        2.63971       -1.72926
C          1.04742       -2.80678       -1.57336
C          0.44713       -3.61108       -2.52156
C         -0.34545       -3.04140       -3.49507
C         -0.53837       -1.67099       -3.54740
C          0.09405       -0.84876       -2.59489
Cl         1.58793        0.20681        2.88392
Cl        -1.62307       -0.50002        2.89523
C         -1.40965       -1.09851       -4.61029
C          1.39354        0.75672       -4.68804
H         -0.60704        4.45248       -2.77569
H         -1.64286        3.11789       -0.97789
H          1.65944       -3.24548       -0.80247
H          0.59413       -4.67842       -2.49619
H          0.80534        3.34399       -4.45490
H         -0.82895       -3.66468       -4.22837
C         -3.90638       -3.29740       -1.59430
C         -2.92075       -3.42769       -0.62437
C         -2.22184       -2.28628       -0.25424
C         -2.48542       -1.08308       -0.85929
C         -3.44681       -0.97445       -1.83408
C         -4.18707       -2.08730       -2.21687
H         -4.48746       -4.16164       -1.85806
H         -1.47284       -2.32341        0.51730
H         -3.61749       -0.01203       -2.28566
C         -4.29643        3.10328        2.07760
C         -4.87146        2.16073        1.23476
C         -4.02174        1.32989        0.51623
C         -2.65954        1.45563        0.63033
C         -2.10952        2.39559        1.46715
C         -2.92100        3.22569        2.22955
H         -4.94096        3.76121        2.63037
H         -4.41796        0.57304       -0.13605
H         -1.03813        2.46868        1.53171
C          4.52974       -2.87113        2.20896
C          3.18336       -3.21775        2.24588
C          2.30244       -2.49315        1.45386
C          2.75253       -1.45478        0.67768
C          4.08224       -1.11673        0.66577
C          5.00207       -1.82187        1.42866
H          5.22549       -3.42579        2.80833
H          1.25110       -2.72638        1.45746
H          4.40597       -0.28362        0.06679
C          3.75030        3.31726       -1.49387
C          2.78834        3.38272       -0.49304
C          2.11614        2.21361       -0.16498
C          2.39729        1.03970       -0.81810
C          3.35136        0.98939       -1.80435
C          4.05359        2.13533       -2.15965
H          4.29805        4.20354       -1.75307
H          1.38317        2.21263        0.62341
H          3.55449        0.04356       -2.27723
Pd        -0.03482       -0.07612        1.35823
C         -2.41596       -5.85223       -1.05038
C         -2.66131       -4.78812        0.03610
C         -3.88686       -5.17867        0.87998
C         -1.42304       -4.74061        0.95238
H         -1.57914       -5.56619       -1.68641
H         -2.18467       -6.81898       -0.60349
H         -3.29035       -5.98273       -1.68645
H         -3.73177       -6.13775        1.37381
H         -4.07887       -4.42954        1.64794
H         -4.78014       -5.25967        0.26138
H         -1.21685       -5.72265        1.37769
H         -0.54208       -4.42676        0.39345
H         -1.57163       -4.04927        1.78150
C         -6.66733       -2.23074       -2.50017
C         -5.33418       -1.99875       -3.23401
C         -5.15429       -3.07317       -4.32394
C         -5.38306       -0.61736       -3.91610
H         -6.81201       -1.48505       -1.71905
H         -7.50938       -2.16621       -3.18905
H         -6.69174       -3.21389       -2.03116
H         -5.94160       -3.00060       -5.07411
H         -4.19720       -2.95791       -4.83048
H         -5.19129       -4.07762       -3.90465
H         -4.44580       -0.39744       -4.42611
H         -6.18045       -0.58070       -4.65821
H         -5.57482        0.17339       -3.19134
C         -6.98639        1.73968        2.51366
C         -6.39936        2.05719        1.12614
C         -6.82479        0.94204        0.15037
C         -6.96482        3.39462        0.61450
H         -8.07034        1.63732        2.46482
H         -6.57574        0.80697        2.89990
H         -6.75800        2.52755        3.23042
H         -6.45666       -0.02907        0.48096
H         -7.91084        0.87803        0.08479
H         -6.44502        1.13355       -0.85298
H         -8.04838        3.34496        0.50836
H         -6.73413        4.21015        1.29891
H         -6.54126        3.64408       -0.35824
C         -2.46430        5.66190        2.55699
C         -2.33226        4.26765        3.19157
C         -0.84419        3.98558        3.48199
C         -3.08856        4.23196        4.53448
H         -1.93409        5.70400        1.60566
H         -3.50925        5.90657        2.36786
H         -2.05010        6.42994        3.20993
H         -0.70561        2.97266        3.86002
H         -0.23850        4.10417        2.58592
H         -0.45599        4.67753        4.22914
H         -2.63603        4.91470        5.25347
H         -4.13073        4.52518        4.41761
H         -3.06499        3.22945        4.96131
C          2.17876       -5.50805        2.20049
C          2.64417       -4.36230        3.11547
C          1.45699       -3.85238        3.95727
C          3.71933       -4.90274        4.07798
H          1.76997       -6.33344        2.78304
H          1.40812       -5.16877        1.51033
H          3.00994       -5.88995        1.60799
H          1.75632       -2.99965        4.56620
H          0.62543       -3.53670        3.32911
H          1.08820       -4.63156        4.62393
H          4.55602       -5.33731        3.53155
H          4.10002       -4.11041        4.72230
H          3.30761       -5.68248        4.71868
C          7.00173       -1.51251       -0.05205
C          6.47811       -1.40126        1.39216
C          7.34858       -2.29137        2.29935
C          6.59889        0.05699        1.87408
H          6.44737       -0.85987       -0.72532
H          8.05355       -1.23282       -0.10873
H          6.90290       -2.53360       -0.41987
H          7.30340       -3.33412        1.98567
H          8.39237       -1.98003        2.25952
H          7.02528       -2.22748        3.33816
H          7.63932        0.38131        1.88064
H          6.04283        0.73561        1.22808
H          6.20515        0.16146        2.88484
C          3.36584        5.84253       -0.17147
C          2.47421        4.67052        0.28092
C          2.71554        4.42714        1.78313
C          1.00374        5.05781        0.04447
H          4.42025        5.61703       -0.01282
H          3.21436        6.06610       -1.22734
H          3.13253        6.74525        0.39305
H          3.75309        4.14767        1.96475
H          2.50015        5.32373        2.36401
H          2.08589        3.62408        2.16327
H          0.33144        4.25124        0.33181
H          0.73402        5.94317        0.61988
H          0.83064        5.27538       -1.00867
C          6.51517        2.44000       -2.48658
C          5.18728        2.11334       -3.19477
C          4.91147        3.16282       -4.28795
C          5.32121        0.73177       -3.86496
H          6.48687        3.42968       -2.03198
H          6.71887        1.71619       -1.69756
H          7.34829        2.41794       -3.18886
H          4.88235        4.17011       -3.87461
H          5.68774        3.14139       -5.05266
H          3.95507        2.97435       -4.77386
H          5.56517       -0.03816       -3.13338
H          4.39886        0.44740       -4.36964
H          6.11655        0.73925       -4.61015
H         -1.70192       -0.07323       -4.37975
H          0.82793        0.59067       -5.60572
H         -2.32278       -1.68380       -4.71723
H         -0.89964       -1.09762       -5.57453
H          1.78179       -0.20522       -4.35042
H          2.24661        1.38915       -4.93439
