111
-148.54959895
P         -2.08759        2.25643        1.30177
P          0.13418        0.13956        0.51708
C         -1.09770        1.47007        2.59827
C         -0.15137        0.53062        2.25384
C         -2.12133        4.09007        1.54034
C         -1.62520        4.80170        0.30094
C         -1.29577        1.79436        3.92516
H         -2.02101        2.54757        4.18645
C         -0.55993        1.15509        4.90794
H         -0.71544        1.40601        5.94451
C          0.36687        0.19058        4.56208
H          0.93262       -0.31496        5.32732
C          0.56995       -0.12441        3.23049
H          1.28049       -0.88468        2.94542
Pd        -1.47783        1.27989       -0.70607
Cl        -2.99752        2.60695       -1.69058
Cl        -0.86212        0.23475       -2.59500
C         -3.59786        4.37706        1.88496
C         -3.90048        1.87767        1.40187
H         -2.26861        4.58071       -0.55209
H         -1.61833        5.88596        0.43602
H         -0.61228        4.48565        0.03969
H         -3.88061        5.36390        1.49055
H         -3.72076        4.44916        2.97559
H         -4.14477        1.28696        0.50831
C         -4.54667        3.27621        1.33303
C         -4.24730        1.10193        2.65515
H         -1.46507        4.30713        2.39427
H         -5.49785        3.27015        1.88510
H         -4.80908        3.51328        0.29142
H         -3.65921        0.18467        2.73254
H         -4.04571        1.69803        3.54622
H         -5.30499        0.82907        2.67749
C         -1.25655       -4.12819       -0.22445
C         -2.17084       -3.13516        0.21168
C         -1.68500       -1.86172        0.45818
C         -0.37661       -1.54409        0.20092
C          0.48292       -2.46758       -0.33302
C          0.06434       -3.76237       -0.59092
O         -1.64969       -5.49255       -0.25532
C         -3.66605       -3.41611        0.42674
H         -2.32646       -1.09408        0.85710
H          1.49224       -2.16137       -0.54398
C          1.04394       -4.75328       -1.23876
C          4.38014        1.04253       -0.90440
C          4.11068        0.98035        0.48651
C          2.80985        0.73582        0.89423
C          1.81513        0.48317       -0.01483
C          2.09586        0.44761       -1.35532
C          3.37212        0.68505       -1.83459
O          5.64562        1.49487       -1.36450
C          5.20029        1.19609        1.54933
H          2.55446        0.75437        1.93779
H          1.28286        0.25220       -2.03142
C          3.63124        0.58883       -3.34647
C         -4.50294       -2.15443        0.11325
C         -4.16515       -4.52739       -0.51456
C         -3.90304       -3.81520        1.89080
C          1.83985       -5.47314       -0.14003
C          0.29887       -5.77949       -2.11192
C          2.03405       -4.01187       -2.16477
C         -1.43597       -6.18123        0.97025
H         -4.26057       -1.76455       -0.87509
H         -5.56859       -2.38136        0.13221
H         -4.33203       -1.36551        0.84323
H         -3.67910       -5.47616       -0.30176
H         -5.23947       -4.67684       -0.40999
H         -3.95736       -4.27153       -1.55299
H         -3.34499       -4.71229        2.14931
H         -3.58260       -3.01995        2.56357
H         -4.95904       -4.00963        2.07652
H          2.55310       -6.17538       -0.57084
H          2.39453       -4.75710        0.46596
H          1.18057       -6.02808        0.52343
H          0.99833       -6.43736       -2.62710
H         -0.36046       -6.40419       -1.51436
H         -0.30846       -5.27479       -2.86254
H          1.49695       -3.39722       -2.88648
H          2.71195       -3.37152       -1.60237
H          2.64942       -4.71939       -2.72001
H         -0.77993       -7.03469        0.79956
H         -0.98273       -5.51604        1.70632
H         -2.38659       -6.55218        1.35298
C          5.72106        2.90042       -1.56823
C          4.86631        0.41516        2.84111
C          6.56494        0.68133        1.05614
C          5.29004        2.69090        1.89153
C          2.68990       -0.45011       -3.99706
C          3.36973        1.95707       -3.99392
C          5.07130        0.12797       -3.63580
H          5.69690        0.45932        3.54524
H          3.99586        0.82798        3.34893
H          4.67056       -0.63388        2.62037
H          6.49886       -0.36813        0.77110
H          6.91108        1.24058        0.19055
H          7.32328        0.77489        1.83309
H          4.33511        3.05804        2.26692
H          6.04541        2.87168        2.65588
H          5.55044        3.28123        1.01645
H          2.76456       -1.40943       -3.48718
H          1.65035       -0.12724       -3.97216
H          2.95049       -0.60675       -5.04347
H          2.34051        2.27231       -3.82363
H          4.02251        2.72134       -3.57917
H          3.53715        1.91838       -5.06994
H          5.79972        0.85125       -3.27832
H          5.23375       -0.00170       -4.70551
H          5.27563       -0.82254       -3.14403
H          4.77453        3.37456       -1.30574
H          6.51933        3.31621       -0.95361
H          5.95382        3.10744       -2.61259
