64
-97.21278276
Cl        -1.63347       -1.33005       -2.54152
Cl         1.61191       -1.38430       -2.87054
P          1.94724       -0.63298        0.22241
C          2.14545       -2.31451        0.97409
C          3.73450       -0.22624       -0.08835
P         -1.28357       -0.12782        0.44652
C          1.28454        0.58218        1.41734
C         -0.14097        0.82144        1.51817
C         -0.33668        1.93323        2.43696
C          0.96563        2.36670        2.91143
C          1.97132        1.53284        2.27784
H         -1.29903        2.32565        2.77111
H          1.15443        3.16726        3.63021
Pd         0.14603       -0.92787       -1.24393
H          3.05184        1.60187        2.41963
C         -5.01147        2.16495       -0.85809
C         -4.03744        2.81524       -0.12760
C         -2.90450        2.13122        0.27178
C         -2.74093        0.80561       -0.06301
C         -3.71508        0.15616       -0.78680
C         -4.85240        0.83404       -1.18767
H         -5.89553        2.69612       -1.17131
H         -4.15874        3.85446        0.13089
H         -2.14068        2.63441        0.83708
H         -3.57832       -0.88123       -1.04535
H         -5.61012        0.32364       -1.75925
C         -2.64727       -3.93364        2.51700
C         -2.40145       -2.79529        3.26030
C         -1.99439       -1.63384        2.62810
C         -1.83464       -1.62337        1.26180
C         -2.08473       -2.75200        0.51643
C         -2.49157       -3.91413        1.14461
H         -2.96403       -4.83883        3.00898
H         -2.52480       -2.81103        4.33074
H         -1.79275       -0.73686        3.19209
H         -1.96872       -2.71140       -0.55473
H         -2.68772       -4.80046        0.56391
C          4.10422       -0.29177       -1.55412
H          3.90226        0.78537        0.30373
C          4.47302       -1.27979        0.76027
H          4.65478       -0.88666        1.77132
C          3.65605       -2.59544        0.85814
H          5.46753       -1.47076        0.33115
C          1.63971       -2.31465        2.40042
H          1.56273       -3.01235        0.35721
H          3.98659       -3.19451        1.71882
H          3.85557       -3.21512       -0.02815
H          2.19525       -1.59432        3.00424
H          0.58535       -2.03665        2.44817
H          1.75092       -3.29651        2.86652
H          3.90389       -1.28722       -1.95331
H          3.53281        0.42056       -2.15082
H          5.16475       -0.08170       -1.70887
Fe         0.85315        2.47821        0.86066
C          2.23730        3.18734       -0.52316
C          1.43436        4.27122        0.01644
C          0.04036        3.99899       -0.28831
C         -0.01491        2.72374       -0.98026
C          1.33879        2.23428       -1.14370
H          3.32683        3.11932       -0.49456
H          1.81675        5.15948        0.52426
H         -0.81040        4.63889       -0.04414
H         -0.91090        2.24927       -1.38532
H          1.62131        1.33110       -1.68653
