105
-153.07084351
Cl        -0.03548        1.92653        3.03888
Pd        -0.60146        1.13077        1.00313
P         -1.23656        0.48963       -1.15046
N         -0.93266       -1.06521       -1.90857
C          0.08688       -1.97859       -1.62583
C          0.32227       -2.48034       -0.31833
C          1.34075       -3.43458       -0.11823
C          1.55221       -3.99558        1.26818
C          2.42770       -5.25722        1.32103
C          3.65442       -5.11152        0.41632
C          3.22773       -4.87899       -1.04069
C          2.11301       -3.87487       -1.19658
C          1.84079       -3.39382       -2.47080
C          0.84601       -2.47653       -2.68481
H          0.65187       -2.11137       -3.67819
H          2.42963       -3.75047       -3.29894
H          4.08622       -4.54940       -1.63995
H          4.25949       -4.26307        0.75962
H          2.73038       -5.48008        2.35395
H          2.00083       -3.21332        1.89109
C         -0.62232       -2.18890        0.78672
C         -0.15034       -1.60530        1.99616
C         -1.02991       -1.51451        3.07986
C         -2.32739       -1.94342        2.97411
C         -2.81037       -2.50532        1.79874
C         -4.24438       -2.98041        1.77900
C         -4.75087       -3.43780        0.40066
C         -3.66463       -4.20507       -0.35779
C         -2.42308       -3.32437       -0.55707
C         -1.95353       -2.64196        0.70409
H         -1.60058       -3.92207       -0.96945
H         -4.04463       -4.57260       -1.32157
H         -5.05124       -2.56370       -0.19001
H         -4.88366       -2.17864        2.17002
H         -2.99263       -1.84846        3.81568
H         -0.68276       -1.06239        3.99235
N          1.12816       -1.03974        2.10807
P          1.55612        0.16900        0.89804
C          2.66019       -0.40471       -0.38257
C          2.50361        0.07932       -1.65659
C          3.39339       -0.29568       -2.64629
C          4.45540       -1.14175       -2.35512
C          4.60603       -1.60382       -1.05385
C          3.71281       -1.22844       -0.06631
H          3.82900       -1.57239        0.94912
H          5.42486       -2.26213       -0.81920
C          5.38750       -1.58081       -3.42969
H          3.26405        0.06356       -3.65284
H          1.68236        0.74169       -1.86828
C          2.39646        1.59000        1.60689
C          3.17438        1.45791        2.73158
C          3.82263        2.56477        3.24897
C          3.69432        3.80745        2.64250
C          2.92138        3.91393        1.49408
C          2.27447        2.80651        0.97706
H          1.66865        2.88692        0.08757
H          2.82713        4.86981        1.00777
C          4.40661        4.99546        3.18894
H          4.43356        2.46951        4.13033
H          3.27835        0.49162        3.19757
H          1.31724       -0.59239        2.99570
H         -1.21182       -0.95084       -2.87445
C         -0.52998        1.83412       -2.10708
C         -0.58229        3.10942       -1.59554
C         -0.00671        4.15605       -2.29045
C          0.61253        3.93390       -3.51290
C          0.64534        2.64173       -4.02001
C          0.06884        1.59675       -3.32175
H          0.10472        0.59281       -3.71078
H          1.13182        2.45793       -4.96276
C          1.26391        5.05376       -4.24711
H         -0.03502        5.15344       -1.88606
H         -1.08583        3.27898       -0.65681
C         -3.02062        0.68229       -1.17120
C         -3.61684        1.43452       -2.15528
C         -4.99183        1.58431       -2.16851
C         -5.77799        0.97753       -1.19832
C         -5.15597        0.22774       -0.20990
C         -3.78178        0.07459       -0.20408
H         -3.29319       -0.50285        0.56242
H         -5.75418       -0.22697        0.56100
C         -7.25500        1.16557       -1.18926
H         -5.46277        2.18057       -2.93126
H         -3.00467        1.90733       -2.90646
Cl        -2.47801        2.37234        1.16997
H          2.90640       -5.82765       -1.48703
H          1.83791       -6.12294        0.99445
H          4.30749       -5.99190        0.49858
H          0.57260       -4.20166        1.71767
H         -3.38706       -5.10086        0.21180
H         -2.63564       -2.55584       -1.30902
H         -4.34211       -3.80454        2.49582
H         -5.65943       -4.04816        0.50129
H          4.98389       -2.44268       -3.96297
H          5.55391       -0.78326       -4.15517
H          6.35807       -1.86344       -3.01964
H          3.85383        5.91352        2.98488
H          4.52963        4.91769        4.27006
H          5.39741        5.09240        2.74300
H          1.24357        4.88320       -5.32441
H          0.75680        5.99984       -4.05254
H          2.30593        5.16152       -3.94283
H         -7.53013        2.03486       -0.59051
H         -7.63947        1.31653       -2.19893
H         -7.75995        0.29427       -0.76971
