171
-217.83440864
P         -1.69532        0.75680        0.23344
P          1.50692       -0.23894       -0.27880
C         -0.90086        1.83925       -0.97639
C          0.59496       -0.92124       -1.67658
C         -0.22647        1.38770       -2.10509
C          0.46060        2.32216       -2.90268
C          0.42499        3.66312       -2.55988
C         -0.25740        4.09439       -1.44279
C         -0.91044        3.17407       -0.64597
C          0.67903       -2.25551       -1.99197
C         -0.02733       -2.76060       -3.06610
C         -0.82743       -1.92382       -3.81610
C         -0.93171       -0.57597       -3.51272
C         -0.18918       -0.06020       -2.43377
Cl         2.16021        1.22835        2.54457
Cl        -0.92525        0.61581        3.44421
C         -1.80666        0.31497       -4.32425
C          1.24823        1.90494       -4.09542
H         -0.27114        5.14052       -1.18402
H         -1.42290        3.49252        0.24992
H          1.28961       -2.90824       -1.39238
H          0.04280       -3.80650       -3.31614
H          0.95148        4.37225       -3.17637
H         -1.38081       -2.31780       -4.65153
C         -2.97418       -3.45617       -0.85384
C         -1.88709       -3.30572       -0.00165
C         -1.48246       -2.01453        0.31775
C         -2.12998       -0.92851       -0.22534
C         -3.20066       -1.10053       -1.06777
C         -3.65113       -2.37155       -1.39633
H         -3.30972       -4.45020       -1.08164
H         -0.65842       -1.85035        0.98805
H         -3.70898       -0.23391       -1.45342
C         -5.59231        2.71966        1.44857
C         -4.76306        2.23402        2.45182
C         -3.56299        1.64891        2.07225
C         -3.21271        1.56756        0.74906
C         -4.04012        2.06127       -0.22994
C         -5.25732        2.64319        0.10251
H         -6.52782        3.17104        1.72383
H         -2.88114        1.25738        2.80416
H         -3.72359        1.99143       -1.25690
C          3.79796       -3.57465        1.82396
C          3.98599       -3.35208        0.46570
C          3.27200       -2.32032       -0.12871
C          2.38005       -1.56559        0.59343
C          2.20804       -1.80900        1.93597
C          2.91996       -2.81076        2.58114
H          4.35719       -4.34905        2.31425
H          3.41752       -2.10519       -1.17298
H          1.52481       -1.20185        2.49794
C          4.66804        2.55488       -1.93596
C          3.95161        2.95825       -0.81533
C          2.99218        2.09145       -0.31256
C          2.75303        0.88337       -0.91515
C          3.45712        0.50789       -2.03317
C          4.43744        1.33761       -2.56524
H          5.43741        3.19430       -2.32545
H          2.44046        2.35281        0.57219
H          3.22190       -0.43279       -2.49980
Pd         0.24208        0.66153        1.52454
C         -2.22276       -5.26650        1.51766
C         -1.21898       -4.55446        0.59334
C          0.03147       -4.19584        1.41330
C         -0.78830       -5.50779       -0.53778
H         -1.77647       -6.15141        1.97108
H         -2.54483       -4.60198        2.31923
H         -3.10910       -5.58217        0.96836
H          0.76352       -3.67798        0.79636
H         -0.22152       -3.56004        2.26101
H          0.50814       -5.09513        1.80224
H         -1.63996       -5.83700       -1.13126
H         -0.08182       -5.01787       -1.20616
H         -0.30345       -6.39612       -0.13320
C         -5.22250       -4.00421       -2.55718
C         -4.90235       -2.52425       -2.27321
C         -4.68167       -1.80926       -3.61778
C         -6.10255       -1.89048       -1.54504
H         -4.39273       -4.49275       -3.06784
H         -5.42924       -4.54593       -1.63442
H         -6.10203       -4.09398       -3.19466
H         -3.82323       -2.23095       -4.13911
H         -5.55304       -1.91532       -4.26374
H         -4.50300       -0.74444       -3.47502
H         -6.26768       -2.37367       -0.58228
H         -5.93654       -0.82951       -1.36114
H         -7.01409       -1.98896       -2.13422
C         -6.50709        1.58233        4.13130
C         -5.18865        2.34955        3.92244
C         -5.38800        3.83409        4.27909
C         -4.12499        1.75954        4.86961
H         -6.38791        0.53298        3.86213
H         -6.82552        1.62998        5.17252
H         -7.30743        1.99585        3.51876
H         -6.17018        4.28655        3.67070
H         -5.67103        3.94939        5.32523
H         -4.46865        4.39564        4.11412
H         -4.43800        1.85229        5.90939
H         -3.96287        0.70108        4.66739
H         -3.17327        2.27979        4.76401
C         -6.42879        4.69065       -0.74518
C         -6.22254        3.18087       -0.96307
C         -7.57174        2.44787       -0.84404
C         -5.67521        2.96096       -2.38763
H         -7.09852        5.10579       -1.49815
H         -6.86092        4.89354        0.23406
H         -5.47897        5.22140       -0.80815
H         -7.43861        1.37371       -0.97119
H         -8.02973        2.61503        0.13007
H         -8.27174        2.79340       -1.60459
H         -4.72829        3.48159       -2.52952
H         -5.52097        1.90096       -2.58934
H         -6.37404        3.33998       -3.13321
C          6.04106       -3.26959       -0.96624
C          4.94554       -4.18750       -0.39265
C          4.15616       -4.83671       -1.54566
C          5.61918       -5.30438        0.42712
H          5.61393       -2.48827       -1.59353
H          6.59688       -2.78562       -0.16344
H          6.74715       -3.83588       -1.57328
H          3.71089       -4.08409       -2.19540
H          4.80444       -5.46272       -2.15849
H          3.35152       -5.46109       -1.15739
H          6.21365       -4.88997        1.24111
H          4.87734       -5.98192        0.84963
H          6.28674       -5.89519       -0.20003
C          4.16101       -2.72013        4.75056
C          2.80501       -3.04023        4.09597
C          2.42777       -4.50627        4.37742
C          1.73118       -2.13250        4.73029
H          4.11475       -2.85335        5.83123
H          4.94730       -3.36900        4.36632
H          4.44998       -1.68879        4.54895
H          3.17139       -5.19384        3.97674
H          2.35144       -4.68833        5.44928
H          1.46635       -4.75158        3.92860
H          1.97841       -1.07916        4.59972
H          0.75138       -2.31348        4.28920
H          1.65022       -2.31922        5.80085
C          4.65566        4.02278        1.34016
C          4.19576        4.29615       -0.10402
C          2.88644        5.10658       -0.08518
C          5.27688        5.13199       -0.81503
H          5.56941        3.42906        1.34697
H          4.85306        4.95421        1.87028
H          3.89834        3.47480        1.89955
H          2.53674        5.29406       -1.09998
H          2.09885        4.57496        0.44759
H          3.02952        6.06885        0.40588
H          6.23314        4.60934       -0.82625
H          4.98928        5.35094       -1.84325
H          5.42780        6.08315       -0.30464
C          5.30328        2.02665       -4.83165
C          5.29637        0.91372       -3.76595
C          4.75931       -0.37496       -4.42044
C          6.73358        0.65692       -3.27909
H          4.29259        2.23997       -5.17729
H          5.72802        2.95112       -4.44318
H          5.89625        1.73066       -5.69692
H          4.79869       -1.21583       -3.72860
H          3.72834       -0.24652       -4.74957
H          5.35498       -0.64251       -5.29308
H          7.16602        1.55651       -2.84209
H          6.74878       -0.12386       -2.51883
H          7.37492        0.34087       -4.10163
H         -1.21641        0.92399       -5.00946
H          0.79193        2.27443       -5.01489
H         -2.37812        0.98819       -3.68303
H         -2.51644       -0.25857       -4.92157
H          1.32637        0.81966       -4.16821
H          2.26123        2.30474       -4.04120
