59
-75.79897259
Cl         1.63932        0.69158        2.32607
P          1.63101        0.06894       -0.82831
P         -1.53112       -0.11589       -0.84110
C          0.67852        0.25806       -2.39532
H          0.38685        1.30572       -2.50438
H          1.32799        0.00263       -3.23849
C         -0.52983       -0.62951       -2.30768
H         -0.23180       -1.67281       -2.17210
H         -1.15541       -0.57809       -3.20455
C          2.56674       -1.52832       -0.86918
H          2.40016       -1.96197       -1.86263
C          3.04230        1.25088       -0.64865
H          3.11090        1.48248        0.42139
C         -2.70513       -1.42658       -0.25156
H         -2.59791       -1.46500        0.83913
C         -2.75538        1.17789       -1.35897
H         -2.81124        1.06361       -2.45025
C          4.03691       -1.09552       -0.70408
H          4.33376       -1.24802        0.34250
H          4.69858       -1.74604       -1.29556
C          4.24704        0.39783       -1.08109
H          4.37535        0.49090       -2.16855
H          5.17478        0.79098       -0.63748
C         -4.08935       -0.86819       -0.62839
H         -4.39426       -1.29755       -1.59244
H         -4.84776       -1.20111        0.09625
C         -4.07147        0.68124       -0.73675
H         -4.18699        1.11239        0.26540
H         -4.93235        1.04735       -1.31680
C          2.06211       -2.47329        0.21429
H          0.97311       -2.58383        0.11754
H          2.21576       -2.00048        1.19386
C          2.83847        2.53436       -1.44256
H          3.78202        3.09711       -1.46957
H          2.62634        2.27613       -2.48815
C         -2.38994       -2.79204       -0.84960
H         -2.47343       -2.72829       -1.94253
H         -1.33775       -3.03790       -0.65166
C         -2.35798        2.61573       -1.02103
H         -1.40085        2.83695       -1.51155
H         -3.08125        3.30003       -1.48609
C          2.73093       -3.83909        0.17422
H          3.81059       -3.75679        0.31119
H          2.56515       -4.33028       -0.78649
H          2.35142       -4.50383        0.95359
C          1.72906        3.40261       -0.86781
H          0.78970        2.85253       -0.80464
H          1.55045        4.29647       -1.46964
H          1.96993        3.72989        0.14544
C         -3.28957       -3.89627       -0.31461
H         -3.04279       -4.87024       -0.74342
H         -4.33918       -3.69690       -0.53781
H         -3.20274       -3.98308        0.77013
C         -2.25482        2.93065        0.46361
H         -1.90191        3.94966        0.63929
H         -3.21735        2.83616        0.96783
H         -1.56181        2.26019        0.96911
Cl        -1.61191        0.17491        2.36097
Pd         0.04106        0.17255        0.84330
