111
-148.55439574
P         -2.40885        2.39316       -0.12957
P         -0.01488        0.37686        0.45313
C         -1.76287        2.21987        1.55231
C         -0.75858        1.31167        1.80639
C         -2.56616        4.16749       -0.62201
C         -1.81124        4.42125       -1.90864
C         -2.29445        2.96691        2.58387
H         -3.06604        3.68974        2.37438
C         -1.83318        2.78404        3.87607
H         -2.24935        3.36531        4.68264
C         -0.84780        1.85060        4.13376
H         -0.49539        1.70007        5.14091
C         -0.31055        1.11073        3.09566
H          0.45361        0.37210        3.28208
Pd        -1.20403        0.95127       -1.46850
Cl        -2.66472        1.34009       -3.12355
Cl        -0.05497       -0.69258       -2.48988
C         -4.09162        4.36787       -0.74071
C         -4.17175        1.84514       -0.30013
H         -1.89140        5.46493       -2.22229
H         -0.75072        4.17969       -1.80206
H         -2.20958        3.80222       -2.71484
H         -4.30407        5.10742       -1.52645
H         -4.48580        4.80324        0.18927
H         -4.15924        0.94581       -0.93108
C         -4.82868        3.03096       -1.03514
C         -4.79780        1.53777        1.04395
H         -2.14654        4.76649        0.19765
H         -5.88860        3.10005       -0.74986
H         -4.82390        2.84524       -2.11933
H         -4.85750        2.43849        1.65657
H         -5.81325        1.14981        0.93413
H         -4.21103        0.80202        1.59833
C         -1.11104       -4.02996        0.71310
C          0.23863       -3.63952        0.90973
C          0.55147       -2.29367        0.82081
C         -0.42554       -1.35437        0.62317
C         -1.74480       -1.71461        0.53907
C         -2.12616       -3.04446        0.60940
O         -1.44052       -5.40621        0.59014
C          1.36359       -4.65144        1.17938
H          1.57157       -1.95963        0.89068
H         -2.47558       -0.93684        0.39690
C         -3.61882       -3.39750        0.51885
C          4.49549        1.02942        0.08370
C          3.81102        0.19157       -0.83467
C          2.43964        0.06260       -0.70270
C          1.75764        0.65086        0.32973
C          2.43455        1.36709        1.28365
C          3.80729        1.53987        1.21606
O          5.83578        1.41789       -0.17165
C          4.49857       -0.59946       -1.96032
H          1.87507       -0.49314       -1.43016
H          1.87599        1.80564        2.09090
C          4.50210        2.25369        2.38870
C          2.50069       -3.99979        1.99952
C          0.84660       -5.84670        2.00024
C          1.94454       -5.13671       -0.15736
C         -4.48781       -2.25388        1.08911
C         -3.99997       -3.60598       -0.95502
C         -3.94247       -4.65887        1.33948
C         -1.38675       -5.90074       -0.74220
H          3.23600       -4.74537        2.30124
H          3.03179       -3.24341        1.42350
H          2.10881       -3.53219        2.90242
H          0.39894       -5.50619        2.93332
H          0.09196       -6.40691        1.45386
H          1.65604       -6.53459        2.24330
H          2.32364       -4.29750       -0.73920
H          2.76553       -5.83488        0.00382
H          1.19035       -5.63893       -0.75758
H         -4.45283       -1.37117        0.45290
H         -5.53248       -2.55697        1.15545
H         -4.15585       -1.97427        2.08867
H         -3.80067       -2.70470       -1.53454
H         -3.42856       -4.41632       -1.40041
H         -5.05835       -3.84505       -1.05503
H         -3.42691       -5.53170        0.94715
H         -3.63738       -4.52957        2.37735
H         -5.01082       -4.87302        1.32394
H         -0.68196       -6.73031       -0.79577
H         -2.36859       -6.27203       -1.03508
H         -1.07571       -5.11178       -1.42826
C          5.92617        2.59812       -0.95236
C          6.02574       -0.66271       -1.78634
C          3.98315       -2.05573       -1.94897
C          4.16069        0.04365       -3.31554
C          4.19859        3.75942        2.32414
C          3.96881        1.68783        3.72401
C          6.02524        2.03523        2.38662
H          6.28440       -1.05188       -0.80220
H          6.48028       -1.30786       -2.53784
H          6.47517        0.32258       -1.88381
H          4.50186       -2.65763       -2.69461
H          4.14896       -2.51256       -0.97384
H          2.91892       -2.11073       -2.17161
H          3.08402        0.05815       -3.48208
H          4.51786        1.07068       -3.36302
H          4.61905       -0.50998       -4.13449
H          3.12519        3.94221        2.36429
H          4.66013        4.28563        3.15934
H          4.57588        4.19776        1.40226
H          2.91280        1.91087        3.86644
H          4.09336        0.60588        3.76003
H          4.50637        2.11629        4.56955
H          6.48534        2.46564        3.27579
H          6.48894        2.49938        1.51943
H          6.26083        0.97184        2.36231
H          5.44060        3.42523       -0.43720
H          6.97619        2.84183       -1.11538
H          5.43749        2.44871       -1.91389
