105
-153.07311809
Cl        -0.03292        1.91669        3.04720
Pd        -0.62050        1.11436        1.02130
P         -1.30130        0.52101       -1.13618
N         -1.03508       -1.05961       -1.85235
C          0.02971       -1.93541       -1.61169
C          0.31458       -2.44602       -0.31768
C          1.35840       -3.37873       -0.15510
C          1.61631       -3.95181        1.21812
C          2.50986       -5.20171        1.22966
C          3.71211       -5.02453        0.29798
C          3.24860       -4.77295       -1.14482
C          2.11167       -3.78808       -1.25854
C          1.79665       -3.29535       -2.51860
C          0.77490       -2.39965       -2.69579
H          0.54473       -2.02993       -3.67968
H          2.37215       -3.62755       -3.36607
H          4.08724       -4.41589       -1.75624
H          4.31463       -4.17458        0.64184
H          2.84064       -5.43634        2.25130
H          2.07139       -3.17054        1.83757
C         -0.60654       -2.18153        0.81203
C         -0.12087       -1.58282        2.00786
C         -0.98779       -1.48429        3.10138
C         -2.28658       -1.91471        3.01420
C         -2.78074       -2.49662        1.85296
C         -4.21365       -2.97715        1.85622
C         -4.71072       -3.55163        0.51757
C         -3.59906       -4.31406       -0.20887
C         -2.40084       -3.39203       -0.47405
C         -1.93218       -2.65362        0.75519
H         -1.56495       -3.97038       -0.88720
H         -3.97134       -4.75423       -1.14482
H         -5.06391       -2.73674       -0.12586
H         -4.85758       -2.14686        2.17312
H         -2.94412       -1.80567        3.86006
H         -0.63268       -1.01756        4.00336
N          1.15524       -1.00661        2.09359
P          1.55646        0.20086        0.87003
C          2.67393       -0.37337       -0.40004
C          2.51780        0.08838       -1.68230
C          3.41935       -0.28669       -2.66116
C          4.49387       -1.10986       -2.35103
C          4.64444       -1.54886       -1.04194
C          3.73873       -1.17402       -0.06554
H          3.85571       -1.49931        0.95594
H          5.47391       -2.18814       -0.79249
C          5.44057       -1.55054       -3.41207
H          3.28970        0.05526       -3.67368
H          1.68881        0.73560       -1.90920
C          2.39035        1.62835        1.57345
C          3.17868        1.50059        2.69142
C          3.82474        2.61095        3.20406
C          3.68435        3.85301        2.59917
C          2.90164        3.95515        1.45701
C          2.25704        2.84407        0.94510
H          1.64701        2.92020        0.05857
H          2.79869        4.91036        0.97114
C          4.39510        5.04451        3.13999
H          4.44383        2.51878        4.08004
H          3.29386        0.53467        3.15545
H          1.35539       -0.55360        2.97584
H         -1.34462       -0.95338       -2.80985
C         -0.50878        1.81557       -2.09376
C         -0.43814        3.08676       -1.57302
C          0.20775        4.08506       -2.27824
C          0.78382        3.81744       -3.51259
C          0.67486        2.53644       -4.03652
C          0.02909        1.53950       -3.32861
H         -0.03603        0.54074       -3.72675
H          1.10419        2.32316       -5.00058
C          1.46641        4.89492       -4.28090
H          0.26662        5.08089       -1.87316
H         -0.89859        3.29574       -0.62016
C         -3.07596        0.77285       -1.21705
C         -3.60844        1.74899       -2.02575
C         -4.97869        1.92896       -2.07591
C         -5.82367        1.13754       -1.30970
C         -5.26726        0.15099       -0.50750
C         -3.89679       -0.02986       -0.46453
H         -3.45567       -0.77559        0.17543
H         -5.91425       -0.46642        0.09162
C         -7.30030        1.31892       -1.37352
H         -5.40060        2.69025       -2.70961
H         -2.95160        2.36875       -2.61408
Cl        -2.69872        1.87870        1.43019
H          2.93569       -5.71928       -1.60195
H          1.92411       -6.07035        0.90363
H          4.37806       -5.89757        0.34955
H          0.65276       -4.17677        1.69259
H         -3.27556       -5.16132        0.40872
H         -2.66207       -2.65966       -1.24627
H         -4.31593       -3.73805        2.63930
H         -5.58599       -4.19806        0.67286
H          5.55388       -0.78497       -4.18092
H          6.42946       -1.75357       -2.99865
H          5.08379       -2.46179       -3.89418
H          4.51884        4.97148        4.22137
H          5.38557        5.14082        2.69320
H          3.84101        5.96093        2.93222
H          0.76482        5.40086       -4.94551
H          1.89674        5.64263       -3.61316
H          2.27623        4.49092       -4.89009
H         -7.73491        0.68892       -2.15081
H         -7.77007        1.05580       -0.42476
H         -7.56051        2.35495       -1.59475
