171
-217.83725870
P         -1.64134        0.43825        0.16065
P          1.61497       -0.35726       -0.45132
C         -0.94838        1.45421       -1.16023
C          0.69233       -1.24023       -1.70730
C         -0.36145        0.93119       -2.30771
C          0.17292        1.82364       -3.25645
C          0.08701        3.18806       -3.03459
C         -0.48552        3.68634       -1.88505
C         -0.99037        2.81163       -0.94371
C          0.89778       -2.58529       -1.88204
C          0.18174       -3.26970       -2.84547
C         -0.74271       -2.59795       -3.61960
C         -0.96063       -1.23889       -3.45854
C         -0.21737       -0.53869       -2.48925
Cl         2.18338        0.64115        2.58869
Cl        -0.81892       -0.12793        3.37176
C         -1.94609       -0.53920       -4.32699
C          0.83487        1.33612       -4.49632
H         -0.53858        4.74994       -1.71935
H         -1.42135        3.18939       -0.02867
H          1.62465       -3.09481       -1.26964
H          0.34800       -4.32392       -2.99470
H          0.49183        3.86306       -3.76977
H         -1.30562       -3.13094       -4.36714
C         -3.61779       -3.46637       -1.00350
C         -2.55315       -3.50327       -0.11191
C         -1.92164       -2.30403        0.19496
C         -2.36040       -1.12411       -0.35482
C         -3.43082       -1.10433       -1.21604
C         -4.08210       -2.28278       -1.56127
H         -4.11891       -4.38032       -1.26052
H         -1.09528       -2.28221        0.88305
H         -3.76480       -0.15809       -1.60397
C         -5.11010        2.82795        1.87055
C         -4.89041        2.82684        0.49845
C         -3.82231        2.08323        0.01431
C         -3.00258        1.38729        0.86978
C         -3.23981        1.40088        2.22017
C         -4.30109        2.12069        2.75067
H         -5.92832        3.39526        2.27258
H         -3.61447        2.06369       -1.04256
H         -2.57642        0.84901        2.85919
C          4.45651       -2.86015        2.05670
C          4.97652       -1.93637        1.16044
C          4.08189       -1.22557        0.37028
C          2.72950       -1.45359        0.45727
C          2.23710       -2.38969        1.33524
C          3.09228       -3.09520        2.17321
H          5.13794       -3.38748        2.69721
H          4.43412       -0.45880       -0.29606
H          1.17327       -2.53567        1.40456
C          4.08529        3.00945       -2.18604
C          3.26518        3.26844       -1.09441
C          2.51394        2.21854       -0.58225
C          2.57152        0.97752       -1.16323
C          3.38313        0.73740       -2.24544
C          4.16848        1.75342       -2.77702
H          4.68549        3.81186       -2.57145
H          1.88608        2.35418        0.28131
H          3.41711       -0.25520       -2.66292
Pd         0.30558        0.16525        1.44132
C         -0.74209       -5.22271       -0.13401
C         -2.06964       -4.81497        0.52296
C         -3.08794       -5.95545        0.32332
C         -1.87309       -4.61688        2.03899
H         -0.34327       -6.13206        0.31510
H         -0.88396       -5.40834       -1.19814
H          0.00083       -4.43360       -0.03089
H         -3.20146       -6.20551       -0.73115
H         -2.76098       -6.85905        0.83779
H         -4.06459       -5.68070        0.72156
H         -1.55724       -5.54436        2.51625
H         -1.11824       -3.86266        2.25131
H         -2.80330       -4.29684        2.50787
C         -5.66620       -0.90145       -2.99825
C         -5.32104       -2.30648       -2.46855
C         -6.52487       -2.82444       -1.65926
C         -5.06741       -3.23921       -3.66757
H         -6.53735       -0.93700       -3.65226
H         -5.89957       -0.22478       -2.17712
H         -4.84137       -0.47866       -3.56985
H         -6.70862       -2.18784       -0.79389
H         -7.42867       -2.83606       -2.26824
H         -6.35267       -3.83771       -1.29813
H         -4.19515       -2.91688       -4.23391
H         -4.89225       -4.26414       -3.34304
H         -5.92309       -3.24691       -4.34254
C         -6.34567        2.68767       -1.54235
C         -5.75086        3.63453       -0.48363
C         -4.86675        4.69020       -1.17357
C         -6.90966        4.35505        0.23175
H         -6.93856        1.90516       -1.06914
H         -6.99172        3.23035       -2.23223
H         -5.56268        2.20967       -2.12955
H         -4.05752        4.22278       -1.73378
H         -5.44952        5.29364       -1.86924
H         -4.42013        5.35859       -0.43768
H         -7.56275        3.64237        0.73513
H         -6.53551        5.06406        0.97002
H         -7.51675        4.91297       -0.48113
C         -4.49001        3.61498        4.75569
C         -4.58921        2.16121        4.25857
C         -3.58341        1.30484        5.05339
C         -6.00529        1.61648        4.52093
H         -3.49874        4.02205        4.55705
H         -5.21969        4.25413        4.25995
H         -4.67024        3.67345        5.82896
H         -2.56443        1.66550        4.91501
H         -3.80290        1.33973        6.12030
H         -3.62423        0.26129        4.74214
H         -6.23063        1.61332        5.58726
H         -6.76180        2.22152        4.02267
H         -6.09819        0.59477        4.15314
C          6.91984       -1.06876        2.47745
C          6.48836       -1.67117        1.12837
C          6.86688       -0.68541        0.00696
C          7.23977       -2.99310        0.88249
H          7.98758       -0.85048        2.48475
H          6.38285       -0.14056        2.67227
H          6.71194       -1.75302        3.29931
H          7.94464       -0.52558       -0.02197
H          6.56297       -1.07343       -0.96432
H          6.39521        0.28549        0.15779
H          7.06098       -3.70889        1.68372
H          6.91802       -3.44975       -0.05333
H          8.31491       -2.82446        0.82323
C          1.50363       -3.25846        4.10530
C          2.51078       -4.03846        3.23666
C          3.60560       -4.60592        4.16106
C          1.80415       -5.21238        2.54181
H          0.67688       -2.87219        3.51158
H          1.08433       -3.89419        4.88470
H          1.98851       -2.40873        4.58526
H          4.32648       -5.19959        3.59931
H          4.13884       -3.80540        4.67356
H          3.17047       -5.25295        4.92265
H          0.99789       -4.85453        1.90704
H          2.50166       -5.76841        1.91563
H          1.37757       -5.90138        3.27062
C          4.63339        4.99585        0.09412
C          3.23821        4.66923       -0.46803
C          2.21410        4.75629        0.68120
C          2.85407        5.70463       -1.54130
H          4.64516        5.97974        0.56272
H          4.92716        4.26079        0.84328
H          5.38714        4.99086       -0.69250
H          2.46978        4.07014        1.48833
H          2.18768        5.76171        1.10089
H          1.21036        4.51772        0.33092
H          1.88303        5.46792       -1.97448
H          2.79786        6.70587       -1.11453
H          3.58339        5.72902       -2.34994
C          5.88387        2.70998       -4.40060
C          5.14031        1.44556       -3.92809
C          4.37349        0.86124       -5.12851
C          6.18071        0.42140       -3.44158
H          6.48804        3.13392       -3.59874
H          6.55399        2.47736       -5.22817
H          5.18334        3.46999       -4.74639
H          5.05935        0.58756       -5.93017
H          3.81642       -0.03230       -4.84990
H          3.67123        1.58991       -5.53014
H          6.90014        0.19095       -4.22715
H          6.73044        0.81086       -2.58513
H          5.70281       -0.51095       -3.14300
H         -2.81980       -1.16442       -4.50840
H          0.14394        1.34991       -5.34007
H         -1.50829       -0.29654       -5.29593
H         -2.29155        0.38850       -3.86830
H          1.20813        0.31822       -4.37648
H          1.68180        1.97314       -4.75152
