105
-153.06555586
Cl         3.27310        0.83408       -1.45202
Pd         1.04517        0.59989       -1.24784
P         -1.29802        0.64987       -1.00109
N         -1.59369       -0.85099       -1.88581
C         -0.73880       -1.93855       -1.65057
C         -0.59857       -2.53012       -0.36817
C          0.31243       -3.58839       -0.18006
C          0.36488       -4.30745        1.14571
C          1.73796       -4.93499        1.42227
C          2.14692       -5.84158        0.25648
C          2.19528       -5.06467       -1.07189
C          1.13113       -4.00310       -1.23274
C          0.98306       -3.40844       -2.47980
C          0.05642       -2.42087       -2.69416
H         -0.02909       -1.96287       -3.66391
H          1.61481       -3.73417       -3.28887
H          3.17490       -4.58327       -1.17748
H          3.11408       -6.32184        0.46146
H          2.48367       -4.13962        1.54485
H          0.08044       -3.63258        1.96103
C         -1.40351       -2.02967        0.77132
C         -0.74798       -1.33264        1.81773
C         -1.48273       -0.97158        2.94653
C         -2.81444       -1.28412        3.04547
C         -3.47632       -1.96242        2.02766
C         -4.93877       -2.28118        2.21497
C         -5.48039       -3.32600        1.22675
C         -4.97920       -3.04723       -0.19371
C         -3.44351       -3.07169       -0.25062
C         -2.77342       -2.32611        0.87622
H         -3.08736       -4.10861       -0.24182
H         -5.33952       -2.06286       -0.51758
H         -6.57891       -3.35665        1.25281
H         -5.51351       -1.35263        2.12216
H         -3.36714       -0.99946        3.92477
H         -0.98209       -0.46718        3.75284
N          0.64827       -1.16413        1.78411
P          1.51247        0.15334        1.01748
C          3.21912       -0.41160        1.05252
C          4.17753        0.29465        1.73937
C          5.48263       -0.16199        1.75977
C          5.83289       -1.33178        1.09854
C          4.85182       -2.02527        0.40294
C          3.54732       -1.56711        0.38252
H          2.78898       -2.09761       -0.17170
H          5.11718       -2.92289       -0.12896
C          7.24379       -1.80773        1.09457
H          6.24002        0.39150        2.28809
H          3.90202        1.20152        2.25285
C          1.35196        1.71662        1.86973
C          1.58037        2.88983        1.19008
C          1.39228        4.10050        1.83044
C          0.99161        4.14118        3.15951
C          0.78360        2.94457        3.83285
C          0.97008        1.73458        3.18924
H          0.81506        0.80147        3.70517
H          0.46789        2.96612        4.86189
C          0.75275        5.44421        3.83949
H          1.55634        5.02306        1.30021
H          1.92313        2.85155        0.16823
H          1.11293       -1.84404        1.18834
H         -1.60978       -0.54576       -2.84997
C         -1.47732        2.07684       -2.08684
C         -2.27702        2.01967       -3.20310
C         -2.40923        3.13454       -4.01072
C         -1.75340        4.31733       -3.69701
C         -0.95816        4.35771       -2.55994
C         -0.82800        3.24231       -1.75316
H         -0.22311        3.27651       -0.86084
H         -0.43921        5.26752       -2.31085
C         -1.86922        5.50743       -4.58454
H         -3.02342        3.09158       -4.89395
H         -2.80412        1.10985       -3.43787
C         -2.44288        0.99723        0.32526
C         -2.00295        1.66729        1.43982
C         -2.90569        2.02968        2.42217
C         -4.25503        1.73154        2.28417
C         -4.68373        1.08834        1.13023
C         -3.77733        0.72201        0.15122
H         -4.10178        0.23039       -0.75228
H         -5.73187        0.87923        1.00117
C         -5.23095        2.12838        3.33589
H         -2.56476        2.54621        3.30301
H         -0.95698        1.90008        1.53913
Cl         0.74844        0.78038       -3.46880
H          2.12334       -5.76088       -1.91711
H          1.73599       -5.48790        2.37221
H          1.42551       -6.66408        0.17146
H         -0.40291       -5.09037        1.14170
H         -5.40812       -3.76610       -0.90600
H         -3.09981       -2.65147       -1.20361
H         -5.09659       -2.61886        3.24731
H         -5.15087       -4.32566        1.53695
H          7.75913       -1.52045        2.01214
H          7.29250       -2.89458        1.01416
H          7.79245       -1.38292        0.25292
H         -0.28408        5.76026        3.71643
H          0.95887        5.37422        4.90845
H          1.39392        6.22585        3.42964
H         -1.09882        5.49003       -5.35658
H         -2.84112        5.53690       -5.07910
H         -1.75787        6.43339       -4.01863
H         -6.05607        1.41705        3.39446
H         -4.75751        2.16642        4.31801
H         -5.64909        3.11352        3.12479
