58
-89.86369752
P          1.64369        0.20959        0.85898
C          2.37113        1.79346        0.43271
C          3.73269        1.91309        0.27584
C          4.27954        3.13795       -0.06171
C          3.45673        4.23285       -0.24012
C          2.09048        4.10680       -0.08249
C          1.54647        2.88088        0.25571
H          0.48086        2.76521        0.37249
H          4.36036        1.04720        0.41168
C          2.83918       -1.12503        0.64711
C          3.22820       -1.46687       -0.62784
C          4.14830       -2.47786       -0.82989
C          4.68037       -3.14574        0.25419
C          4.29458       -2.80130        1.53425
C          3.37356       -1.78791        1.73035
H          3.07392       -1.51564        2.72849
H          2.80933       -0.93191       -1.46338
C          1.07249        0.29040        2.60306
C          0.16613       -0.88025        2.96793
C         -1.30069       -0.62335        2.67168
P         -1.68137       -0.42829        0.87545
C         -2.64165       -1.85794        0.36616
C         -2.02794       -2.88735       -0.31035
C         -2.76467       -3.99426       -0.69195
C         -4.10924       -4.06501       -0.38526
C         -4.71762       -3.03532        0.30518
C         -3.97861       -1.92920        0.68512
H         -4.43751       -1.12127        1.23292
H         -0.97629       -2.82097       -0.54010
C         -2.53784        1.13211        0.58963
C         -2.06695        2.27260        1.20212
C         -2.67285        3.49051        0.95145
C         -3.74445        3.55983        0.08357
C         -4.20817        2.41640       -0.53610
C         -3.59920        1.20077       -0.28369
H         -3.93210        0.30664       -0.78495
H         -1.22780        2.20951        1.87476
Pd        -0.03357       -0.05303       -0.72287
Cl         1.47181        0.57133       -2.27558
Cl        -1.67009       -0.32183       -2.24186
H         -1.92809       -1.44207        3.03333
H         -1.64485        0.27788        3.18257
H          0.49947       -1.77962        2.43133
H          0.28119       -1.11928        4.03695
H          1.97506        0.31900        3.21800
H          0.56646        1.24376        2.75949
H          5.34517        3.23567       -0.18871
H          1.44775        4.95970       -0.22649
H          4.44885       -2.74179       -1.83056
H          4.71133       -3.32112        2.38132
H         -2.28916       -4.79854       -1.22887
H         -5.76587       -3.09244        0.54843
H         -2.30663        4.38345        1.43099
H         -5.03733        2.47112       -1.22222
H          3.88150        5.18708       -0.50605
H          5.39810       -3.93526        0.10145
H         -4.68438       -4.92639       -0.68358
H         -4.21635        4.50842       -0.11445
