111
-148.55607156
P         -2.18462        2.28934        1.34641
P          0.05288        0.19845        0.52600
C         -1.16008        1.52461        2.62508
C         -0.21741        0.58618        2.26749
C         -2.19066        4.13220        1.48240
C         -1.41182        4.74845        0.34056
C         -1.34199        1.85145        3.95333
H         -2.07743        2.59236        4.22249
C         -0.58408        1.22252        4.92607
H         -0.72547        1.47506        5.96426
C          0.34613        0.26550        4.56803
H          0.93060       -0.23026        5.32553
C          0.52826       -0.05544        3.23463
H          1.24527       -0.80591        2.93995
Pd        -1.56791        1.36420       -0.67077
Cl        -3.31399        2.39903       -1.62493
Cl        -0.91845        0.29663       -2.53803
C         -3.69141        4.47963        1.49122
C         -3.99088        1.93961        1.57282
H         -1.84533        4.46238       -0.61993
H         -1.41829        5.83972        0.39517
H         -0.37143        4.41363        0.34297
H         -4.00226        4.72173        0.46558
H         -3.87020        5.39397        2.07713
H         -4.37352        1.68285        0.57605
C         -4.55269        3.30009        2.02447
C         -4.23462        0.80369        2.54390
H         -1.73071        4.37479        2.44929
H         -4.57353        3.32806        3.12255
H         -5.60141        3.40483        1.70731
H         -3.73491       -0.11095        2.21882
H         -3.85084        1.04894        3.53517
H         -5.30070        0.58920        2.64789
C         -1.06118       -4.13500       -0.31251
C         -2.07375       -3.16871       -0.06919
C         -1.68434       -1.87384        0.23105
C         -0.36448       -1.50781        0.19852
C          0.60724       -2.40649       -0.15547
C          0.29001       -3.72087       -0.45498
O         -1.39010       -5.51459       -0.34421
C         -3.58071       -3.46213       -0.16555
H         -2.41804       -1.12710        0.48300
H          1.62776       -2.06691       -0.19942
C          1.42034       -4.64028       -0.94810
C          4.33169        0.97721       -0.85695
C          3.99771        1.17139        0.50764
C          2.69283        0.93271        0.90537
C          1.72593        0.58457       -0.00246
C          2.02474        0.51047       -1.33770
C          3.30626        0.73916       -1.80635
O          5.69253        0.98366       -1.26360
C          5.03651        1.59591        1.55749
H          2.41691        1.00778        1.94125
H          1.22739        0.26980       -2.01731
C          3.56487        0.70341       -3.32098
C         -3.86890       -4.77590       -0.91248
C         -4.18478       -3.52852        1.24630
C         -4.27378       -2.33023       -0.95850
C          2.27543       -3.89036       -1.99421
C          2.31346       -5.03499        0.23920
C          0.88230       -5.90822       -1.63366
C         -1.34517       -6.12201        0.93586
H         -4.93955       -4.92061       -1.05487
H         -3.39230       -4.77281       -1.89215
H         -3.49126       -5.63353       -0.36061
H         -4.01218       -2.59906        1.78756
H         -5.26058       -3.69619        1.20154
H         -3.74418       -4.33707        1.82610
H         -4.23576       -1.38016       -0.42825
H         -3.79709       -2.19290       -1.92867
H         -5.32456       -2.56225       -1.12961
H          1.64911       -3.51388       -2.80247
H          2.80496       -3.04669       -1.55472
H          3.02533       -4.55061       -2.42919
H          2.73588       -4.15205        0.71811
H          1.74912       -5.58274        0.99136
H          3.13876       -5.66709       -0.08761
H          0.34939       -6.54167       -0.92844
H          0.19263       -5.64758       -2.43573
H          1.69288       -6.49893       -2.05976
H         -0.33360       -6.07679        1.33567
H         -2.01599       -5.60435        1.61933
H         -1.65173       -7.16466        0.84973
C          6.30833       -0.29804       -1.24039
C          6.10456        2.51599        0.93850
C          4.36530        2.39028        2.70109
C          5.69793        0.34396        2.15311
C          2.31797        1.18713       -4.09667
C          4.72402        1.63895       -3.70960
C          3.87955       -0.73741       -3.75028
H          6.80336        2.87045        1.69580
H          6.68120        1.99731        0.17655
H          5.63974        3.38423        0.47258
H          3.70841        1.76025        3.29905
H          5.11426        2.80241        3.37699
H          3.77962        3.21958        2.30523
H          6.43162        0.61371        2.91233
H          4.95272       -0.30154        2.61751
H          6.20606       -0.23567        1.38620
H          2.53771        1.28721       -5.15925
H          1.48907        0.48678       -4.00724
H          1.98604        2.15811       -3.73030
H          5.66191        1.31499       -3.26574
H          4.86237        1.66373       -4.79021
H          4.52713        2.65504       -3.36938
H          4.07821       -0.79161       -4.82031
H          3.03926       -1.39503       -3.53082
H          4.74977       -1.12506       -3.22582
H          5.60787       -1.05070       -0.87607
H          6.63842       -0.56485       -2.24415
H          7.18288       -0.27045       -0.59052
