87
-129.17691968
P         -1.71042       -0.37039        0.37503
P          1.53499        0.42176       -0.07685
C         -1.52159        1.00110       -0.79442
C          1.16815       -0.55673       -1.53981
C         -0.72136        1.00289       -1.93474
C         -0.61132        2.19112       -2.68270
C         -1.31236        3.31518       -2.28174
C         -2.10004        3.29605       -1.15203
C         -2.19529        2.13635       -0.40726
C          1.97636       -1.60754       -1.89830
C          1.70214       -2.32821       -3.04411
C          0.61513       -1.98947       -3.82357
C         -0.21443       -0.93538       -3.47706
C          0.07645       -0.19099       -2.31650
Cl         1.47549        1.58803        2.96981
Cl        -1.11952       -0.23212        3.55934
H         -2.63079        4.18206       -0.84448
H         -2.79129        2.11397        0.49331
H          2.82898       -1.85693       -1.28912
H          2.33418       -3.15415       -3.32641
H         -1.22493        4.21871       -2.86112
H          0.39788       -2.55116       -4.71619
C         -0.41278       -4.57999       -0.75799
C         -1.24053       -3.87859       -1.62330
C         -1.63173       -2.59139       -1.27159
C         -1.19905       -2.02913       -0.09395
C         -0.41626       -2.75002        0.77830
C         -0.00860       -4.02593        0.44023
H         -0.09799       -5.57394       -1.02696
C         -1.68463       -4.49305       -2.90405
H         -2.27077       -2.02401       -1.92645
H         -0.16460       -2.32662        1.73778
H          0.61002       -4.59237        1.11701
C         -6.14381       -0.59364        1.37924
C         -5.22188       -0.56715        2.40688
C         -3.87366       -0.49374        2.11876
C         -3.45428       -0.44976        0.81133
C         -4.37021       -0.47694       -0.21545
C         -5.73298       -0.54070        0.05428
H         -7.19585       -0.65659        1.59970
H         -5.55258       -0.60455        3.43193
H         -3.14079       -0.46750        2.90649
H         -4.02561       -0.44191       -1.23612
C         -6.72269       -0.59315       -1.05601
C          5.02643       -1.44562        2.17689
C          5.10593       -0.13364        1.75311
C          4.05215        0.43245        1.06076
C          2.92879       -0.31562        0.79818
C          2.84660       -1.62084        1.22284
C          3.89805       -2.20986        1.91281
H          5.84328       -1.88624        2.72261
H          5.98565        0.45102        1.96680
H          4.09593        1.45836        0.73308
H          1.95948       -2.19226        1.01395
C          3.78874       -3.61719        2.38435
C          2.64009        4.61117       -1.44763
C          1.86872        4.45150       -0.31341
C          1.53979        3.18258        0.12277
C          1.97805        2.08633       -0.58155
C          2.75608        2.24039       -1.70546
C          3.09269        3.51014       -2.16144
H          2.90202        5.59880       -1.78716
H          1.52761        5.31424        0.23492
H          0.96110        3.04111        1.02037
H          3.09460        1.36768       -2.23968
C          3.94308        3.68246       -3.37049
Pd         0.06337        0.34644        1.74699
C          0.24886        2.27487       -3.89630
C         -1.38800       -0.61116       -4.33401
H         -0.35524        2.24608       -4.80386
H          0.81945        3.20457       -3.90366
H          0.96357        1.45260       -3.93953
H         -2.08100        0.05929       -3.82423
H         -1.07205       -0.12980       -5.26029
H         -1.93923       -1.51472       -4.59805
H         -2.16758       -5.45508       -2.72683
H         -2.39833       -3.85376       -3.42540
H         -0.83609       -4.65943       -3.56911
H         -6.91223       -1.62438       -1.35721
H         -7.67338       -0.14877       -0.75789
H         -6.36216       -0.04809       -1.92968
H          4.76393       -4.02110        2.65969
H          3.13855       -3.68230        3.25794
H          3.37177       -4.25781        1.60579
H          3.85622        2.82454       -4.03893
H          3.65122        4.57077       -3.93262
H          4.99290        3.78816       -3.09355
