75
-122.81036164
P          1.82472       -0.54934        0.02082
C          3.13486       -1.34944       -0.91853
C          4.43798       -1.22576       -0.49288
C          5.44933       -1.87955       -1.17333
C          5.14585       -2.66597       -2.26679
C          3.83442       -2.80819       -2.67427
C          2.82576       -2.15394       -1.99093
H          1.79634       -2.26272       -2.29350
H          3.59570       -3.42734       -3.52332
H          5.93296       -3.17466       -2.79911
H          6.47118       -1.77921       -0.84618
H          4.65695       -0.63702        0.38391
C          1.69902       -1.50103        1.54504
C          1.59982       -0.88368        2.77097
C          1.59748       -1.64044        3.92761
C          1.69579       -3.01527        3.84964
C          1.79184       -3.63321        2.61877
C          1.79523       -2.87173        1.46382
H          1.88750       -3.33963        0.49641
H          1.86534       -4.70646        2.55659
H          1.69037       -3.60724        4.75025
H          1.51402       -1.15729        4.88717
H          1.51400        0.18865        2.81850
C          2.20452        1.17463        0.39234
C          3.32493        1.84852       -0.03578
C          3.47956        3.20199        0.23126
C          2.46272        3.87329        0.90975
C          1.32361        3.21749        1.32049
C          1.19103        1.84378        1.06338
O          0.02727        1.14584        1.42829
C         -1.18509        1.80174        1.15910
C         -1.35499        3.16303        1.45748
C         -2.55990        3.77019        1.18117
C         -3.60660        3.06492        0.58809
C         -3.40785        1.73227        0.25412
C         -2.21665        1.10864        0.54325
P         -1.79824       -0.55961        0.00511
C         -1.65425       -1.65588        1.41950
C         -1.70602       -1.15637        2.70040
C         -1.68109       -2.02307        3.77738
C         -1.60488       -3.38493        3.56200
C         -1.54999       -3.88141        2.27456
C         -1.57723       -3.01184        1.19890
H         -1.55201       -3.38350        0.18647
H         -1.48727       -4.94396        2.10672
H         -1.58108       -4.06140        4.40068
H         -1.71620       -1.63497        4.78200
H         -1.75956       -0.09065        2.85125
C         -3.10131       -1.23145       -1.03966
C         -4.34991       -1.40611       -0.48718
C         -5.37364       -1.93560       -1.25220
C         -5.13643       -2.29347       -2.56436
C         -3.87925       -2.12780       -3.11056
C         -2.85808       -1.59874       -2.34323
H         -1.87395       -1.46353       -2.76115
H         -3.69335       -2.40771       -4.13447
H         -5.93315       -2.70466       -3.16256
H         -6.35297       -2.07002       -0.82315
H         -4.51538       -1.13562        0.54416
Pd         0.01422        0.09873       -1.37791
Cl        -1.58482        1.21690       -2.50393
Cl         1.51970        0.28299       -3.03020
H         -4.17938        1.19079       -0.26402
C         -4.88403        3.74587        0.24837
H         -4.84639        4.15438       -0.76222
H         -5.08826        4.56675        0.93696
H         -5.72440        3.05238        0.30026
H         -2.68434        4.81349        1.41170
S          0.00532        4.06098        2.15893
H          2.55786        4.92700        1.10393
C          4.67871        3.93541       -0.25418
H          4.07263        1.33043       -0.60900
H          4.91588        4.77739        0.39739
H          5.55255        3.28324       -0.28453
H          4.51299        4.32330       -1.26001
