64
-97.20991736
Cl        -1.49563       -1.62405       -2.53355
Cl         1.64163       -1.49793       -2.85980
P          1.95301       -0.58612        0.28895
C          2.22815       -2.23452        1.08560
C          3.71358       -0.11090       -0.05709
P         -1.27907       -0.15789        0.41053
C          1.24043        0.63867        1.44264
C         -0.19082        0.85572        1.48131
C         -0.44802        1.99357        2.35211
C          0.82770        2.47616        2.84989
C          1.87340        1.64404        2.28188
H         -1.42429        2.42670        2.57359
H          0.97526        3.31978        3.52730
Pd         0.21081       -1.01186       -1.20570
H          2.94709        1.75151        2.44850
C         -4.89911        2.30364       -0.85286
C         -4.55389        2.20610        0.48062
C         -3.46324        1.44222        0.85642
C         -2.72131        0.78779       -0.10069
C         -3.08082        0.86252       -1.42714
C         -4.16665        1.62761       -1.80817
H         -5.74765        2.89958       -1.14717
H         -5.13303        2.72266        1.22838
H         -3.19653        1.34032        1.89584
H         -2.52658        0.29601       -2.15598
H         -4.44491        1.68847       -2.84755
C         -2.68517       -3.90852        2.55035
C         -2.34381       -2.78691        3.28129
C         -1.92048       -1.64225        2.62960
C         -1.84011       -1.63175        1.25635
C         -2.18352       -2.74364        0.52403
C         -2.60722       -3.88913        1.17133
H         -3.01502       -4.80061        3.05742
H         -2.40613       -2.80244        4.35702
H         -1.64725       -0.75817        3.18360
H         -2.11554       -2.70403       -0.55135
H         -2.87559       -4.76287        0.60051
C          4.04278       -0.16297       -1.53242
H          3.84793        0.90792        0.32938
C          4.51411       -1.12983        0.77777
H          4.72206       -0.71597        1.77540
C          3.74307       -2.46875        0.92653
H          5.49717       -1.29710        0.31390
C          1.76608       -2.20384        2.52621
H          1.64986       -2.97028        0.50997
H          4.11986       -3.04011        1.78711
H          3.93435       -3.09883        0.04571
H          2.31277       -1.44386        3.08807
H          0.70374       -1.96235        2.59728
H          1.92747       -3.16463        3.02072
H          5.08505        0.10422       -1.72024
H          3.88513       -1.16959       -1.92276
H          3.41337        0.51489       -2.11134
Fe         0.77485        2.48502        0.76463
C          1.11452        2.26291       -1.22187
C          2.07570        3.18269       -0.64150
C          1.35702        4.31966       -0.09154
C         -0.06128        4.05975       -0.26353
C         -0.20912        2.79544       -0.96279
H          1.34210        1.35161       -1.77837
H          3.16249        3.08276       -0.69126
H          1.80034        5.19349        0.38968
H         -0.87645        4.71735        0.04690
H         -1.15286        2.34351       -1.27025
