105
-153.05886926
Cl         0.26742        3.59085        1.69283
Pd        -0.11314        1.97794        0.17185
P         -0.72482        0.27304       -1.36445
N          0.12761       -1.15853       -1.97474
C          0.21585       -2.47959       -1.53904
C         -0.11283       -2.94062       -0.23241
C          0.21783       -4.26509        0.13281
C          0.10108       -4.69207        1.57845
C         -0.04663       -6.20987        1.75273
C          1.06821       -6.94095        0.99894
C          1.03618       -6.60080       -0.50082
C          0.73187       -5.15406       -0.81444
C          0.96534       -4.70290       -2.10596
C          0.73485       -3.39741       -2.45235
H          0.96697       -3.05958       -3.44764
H          1.35818       -5.39111       -2.83537
H          1.99356       -6.86635       -0.96712
H          2.03926       -6.64909        1.41850
H         -0.05201       -6.48712        2.81641
H          0.99787       -4.34790        2.10761
C         -0.71713       -2.06311        0.80701
C          0.08867       -1.05342        1.39131
C         -0.38652       -0.34881        2.49676
C         -1.63476       -0.60865        2.99857
C         -2.45871       -1.57345        2.42631
C         -3.81294       -1.80675        3.05454
C         -4.72893       -2.77724        2.28796
C         -3.92982       -3.92214        1.65771
C         -2.87252       -3.36419        0.69554
C         -2.00064       -2.30835        1.32847
H         -2.25415       -4.17505        0.29378
H         -4.59458       -4.63185        1.14517
H         -5.25647       -2.23126        1.49689
H         -4.31101       -0.83633        3.17582
H         -1.99634       -0.05345        3.84747
H          0.22641        0.41939        2.93071
N          1.25708       -0.70612        0.72306
P          1.82976        0.90583        0.92853
C          3.04358        1.28805       -0.33056
C          2.98779        0.64197       -1.54317
C          3.90032        0.95797       -2.53166
C          4.86862        1.92862       -2.31441
C          4.91205        2.56498       -1.08083
C          3.99746        2.24850       -0.09254
H          4.01948        2.74817        0.86305
H          5.66547        3.31235       -0.89950
C          5.86300        2.25521       -3.37372
H          3.86061        0.45663       -3.48375
H          2.20782       -0.07672       -1.73409
C          2.58159        0.98666        2.55536
C          3.36526       -0.07376        2.94360
C          3.97213       -0.06148        4.18740
C          3.79124        1.01109        5.05041
C          3.00152        2.07526        4.63604
C          2.39706        2.05895        3.39403
H          1.77001        2.87359        3.07534
H          2.86196        2.91630        5.29355
C          4.46377        1.03624        6.37890
H          4.59072       -0.88724        4.49485
H          3.49133       -0.90888        2.27189
H          1.11699       -0.83945       -0.27622
H          0.27427       -0.99813       -2.96431
C         -0.70852        1.40157       -2.77418
C         -1.84288        1.59995       -3.52535
C         -1.82111        2.47794       -4.59311
C         -0.65908        3.16202       -4.92177
C          0.47388        2.95778       -4.14703
C          0.44716        2.07902       -3.08037
H          1.32628        1.92971       -2.47883
H          1.37699        3.49555       -4.38045
C         -0.64146        4.13187       -6.05151
H         -2.71181        2.64261       -5.17509
H         -2.74969        1.07889       -3.26806
C         -2.44536       -0.16343       -1.10719
C         -2.99386       -1.09086       -1.96118
C         -4.33693       -1.40989       -1.86367
C         -5.13476       -0.81107       -0.89886
C         -4.56259        0.12348       -0.04588
C         -3.22325        0.44854       -0.15313
H         -2.78763        1.18999        0.49572
H         -5.17469        0.60356        0.69831
C         -6.58200       -1.14926       -0.80583
H         -4.77257       -2.13033       -2.53469
H         -2.36665       -1.55911       -2.70343
Cl        -1.80741        3.23244       -0.62521
H          0.28639       -7.22494       -1.00170
H         -1.02062       -6.52687        1.35920
H          0.99550       -8.02652        1.15536
H         -0.73155       -4.17402        2.06595
H         -3.43361       -4.49847        2.44856
H         -3.36850       -2.92745       -0.17642
H         -3.65599       -2.18148        4.07316
H         -5.51716       -3.17073        2.94513
H          6.22299        3.28018       -3.27427
H          6.72445        1.58860       -3.31503
H          5.42554        2.15377       -4.36796
H          3.89958        1.63517        7.09515
H          4.55816        0.03056        6.79097
H          5.46462        1.46251        6.29820
H          0.34815        4.18758       -6.50721
H         -1.34851        3.84259       -6.83025
H         -0.91025        5.13131       -5.70693
H         -6.73374       -2.22898       -0.84486
H         -7.01635       -0.78636        0.12672
H         -7.13781       -0.70091       -1.63041
