111
-148.55623851
P         -2.52635        2.07898        1.07670
P          0.11983        0.42868        0.52120
C         -1.44699        1.61283        2.45802
C         -0.27131        0.93982        2.20476
C         -3.26956        3.75504        1.33395
C         -2.61889        4.79495        0.44809
C         -1.79775        1.91930        3.75739
H         -2.72754        2.42787        3.95281
C         -0.96227        1.55714        4.80007
H         -1.23548        1.79602        5.81494
C          0.21912        0.88844        4.54242
H          0.86824        0.60463        5.35439
C          0.56364        0.57472        3.24000
H          1.47359        0.03793        3.02229
Pd        -1.31282        1.62955       -0.83847
Cl        -2.99198        2.61816       -1.95481
Cl        -0.06021        1.15308       -2.63927
C         -4.76459        3.51217        1.05589
C         -4.06120        1.05244        0.95637
H         -2.74506        4.54185       -0.60528
H         -3.05801        5.78313        0.60357
H         -1.54581        4.86549        0.64139
H         -4.96672        3.73511       -0.00083
H         -5.38227        4.21877        1.63089
H         -4.16137        0.77947       -0.10275
C         -5.17071        2.04139        1.36001
C         -3.96706       -0.18452        1.82295
H         -3.11544        4.00300        2.39182
H         -5.36902        1.93092        2.43502
H         -6.11528        1.78285        0.85768
H         -4.88317       -0.77771        1.77442
H         -3.13564       -0.82063        1.51198
H         -3.80061        0.08540        2.86744
C         -1.21543       -3.86605       -0.19320
C         -1.16223       -3.36447        1.13293
C         -0.74160       -2.05917        1.32441
C         -0.45412       -1.24734        0.25906
C         -0.60499       -1.69567       -1.02562
C         -1.02317       -2.98758       -1.28991
O         -1.42226       -5.25258       -0.42120
C         -1.51510       -4.22377        2.35700
H         -0.62150       -1.65991        2.31579
H         -0.38503       -1.00975       -1.82503
C         -1.23085       -3.41721       -2.75024
C          4.52388        0.59434       -0.60452
C          4.00744       -0.53435        0.08221
C          2.66026       -0.54487        0.40324
C          1.86168        0.53698        0.13862
C          2.37977        1.67426       -0.42194
C          3.71670        1.74822       -0.77721
O          5.83245        0.55355       -1.15523
C          4.86617       -1.75678        0.44214
H          2.20659       -1.41479        0.84687
H          1.71320        2.49886       -0.60701
C          4.25218        3.04907       -1.39516
C         -2.61247       -5.24853        2.01678
C         -0.25143       -4.94374        2.85162
C         -2.06232       -3.34508        3.50513
C         -2.33061       -4.48820       -2.86359
C         -1.68326       -2.21485       -3.61111
C          0.09372       -3.95345       -3.31411
C         -0.22214       -6.01289       -0.48684
H         -2.27189       -5.96173        1.27031
H         -2.90924       -5.81309        2.90034
H         -3.49565       -4.74758        1.62167
H          0.15855       -5.59372        2.08239
H          0.52057       -4.22394        3.12309
H         -0.46753       -5.55420        3.72804
H         -2.41807       -3.96377        4.32870
H         -1.29699       -2.68467        3.90998
H         -2.89725       -2.73488        3.16270
H         -2.05054       -5.40154       -2.34487
H         -3.26201       -4.12878       -2.42736
H         -2.52084       -4.74589       -3.90516
H         -0.89165       -1.47532       -3.72098
H         -1.95844       -2.53879       -4.61445
H         -2.54977       -1.72469       -3.16807
H          0.86995       -3.19005       -3.26475
H          0.44208       -4.81568       -2.75050
H         -0.01840       -4.25439       -4.35538
H         -0.14817       -6.49740       -1.46025
H          0.64530       -5.36941       -0.33403
H         -0.23876       -6.78852        0.27865
C          5.88572        0.04143       -2.48109
C          6.32639       -1.35139        0.71272
C          4.34079       -2.42987        1.73114
C          4.80121       -2.77776       -0.70413
C          4.06552        2.99752       -2.91936
C          3.48209        4.27199       -0.84689
C          5.73650        3.26178       -1.04695
H          6.91890       -2.20904        1.03031
H          6.79588       -0.93916       -0.17676
H          6.37569       -0.59606        1.49631
H          4.25227       -1.70374        2.53884
H          3.36710       -2.89294        1.57774
H          5.01948       -3.21615        2.06097
H          3.77318       -3.09401       -0.88032
H          5.17993       -2.35461       -1.63141
H          5.39198       -3.66354       -0.47210
H          3.01338        2.87065       -3.17361
H          4.41853        3.91577       -3.38788
H          4.61272        2.16554       -3.35581
H          2.44884        4.28523       -1.19049
H          3.48262        4.27384        0.24278
H          3.94183        5.20098       -1.18340
H          6.09674        4.21507       -1.43290
H          6.36031        2.47914       -1.47120
H          5.88179        3.25605        0.03277
H          4.88488       -0.21765       -2.82894
H          6.31898        0.78939       -3.14494
H          6.52024       -0.84427       -2.50694
