87
-129.18411148
P         -1.55727       -0.31845       -0.38241
P          1.70955        0.39950        0.08079
C         -1.19934        0.92215       -1.62997
C          1.57029       -0.71226       -1.33919
C         -0.12856        0.73234       -2.49456
C          0.14080        1.71615       -3.46693
C         -0.67318        2.83471       -3.53825
C         -1.73180        3.00229       -2.67047
C         -1.99235        2.03997       -1.71510
C          2.31264       -1.86704       -1.26087
C          2.20633       -2.83773       -2.23731
C          1.33527       -2.65287       -3.28823
C          0.56801       -1.50501       -3.38476
C          0.69463       -0.50318       -2.40315
Cl         1.06541        0.31726        3.24043
Cl        -1.45127       -1.72562        2.50728
H         -2.35155        3.88157       -2.73487
H         -2.82144        2.15852       -1.03741
H          2.97492       -2.01548       -0.42357
H          2.79181       -3.73999       -2.16979
H         -0.46420        3.58461       -4.28220
H          1.23621       -3.41237       -4.04520
C         -2.24642       -4.35155       -2.34860
C         -1.34630       -4.25600       -1.29610
C         -1.16075       -3.01784       -0.69335
C         -1.85877       -1.91714       -1.13196
C         -2.75572       -2.02063       -2.16897
C         -2.95276       -3.24551       -2.77944
H         -2.38788       -5.30333       -2.83170
C         -0.55587       -5.43616       -0.85312
H         -0.46002       -2.91628        0.11813
H         -3.28374       -1.14158       -2.50414
H         -3.64952       -3.33378       -3.59680
C         -5.10315        1.00246        2.15495
C         -5.18544       -0.16377        1.41975
C         -4.11507       -0.56747        0.64417
C         -2.97485        0.19968        0.60484
C         -2.88951        1.35970        1.33966
C         -3.95136        1.77685        2.13191
H         -5.93652        1.31913        2.75865
H         -6.08156       -0.76147        1.45336
H         -4.16076       -1.48146        0.07512
H         -1.99074        1.95090        1.29867
C         -3.85456        3.04101        2.91124
C          5.65439       -0.28608        2.24474
C          5.50433        0.80406        1.41046
C          4.30230        1.01520        0.76121
C          3.26223        0.13492        0.94870
C          3.41050       -0.95313        1.77755
C          4.60769       -1.17494        2.44715
H          6.59029       -0.45391        2.74994
H          6.32254        1.49033        1.26553
H          4.16913        1.86400        0.11036
H          2.58528       -1.63094        1.92160
C          4.76463       -2.35870        3.33534
C          0.91924        4.80924       -0.67300
C          1.78715        4.12433       -1.50121
C          2.04807        2.78601       -1.27287
C          1.43604        2.14683       -0.22096
C          0.60051        2.83563        0.62814
C          0.32192        4.17893        0.41001
H          0.70084        5.84668       -0.86071
H          2.25010        4.62822       -2.33374
H          2.70821        2.23082       -1.91995
H          0.18772        2.33404        1.48668
C         -0.62987        4.90630        1.29272
Pd        -0.04327       -0.37354        1.40768
C          1.28006        1.58014       -4.41630
C         -0.37843       -1.36163       -4.52611
H          1.84141        2.51297       -4.48634
H          1.97467        0.80167       -4.09868
H          0.92465        1.32751       -5.41603
H         -1.12187       -0.58715       -4.33480
H          0.15316       -1.10158       -5.44221
H         -0.91628       -2.29399       -4.70360
H          0.38778       -5.49541       -1.39737
H         -0.32682       -5.37700        0.21192
H         -1.10321       -6.36427       -1.02357
H         -4.58721        3.06569        3.71903
H         -2.86525        3.14767        3.35874
H         -4.03007        3.90615        2.27025
H          3.83822       -2.56919        3.87182
H          5.02832       -3.24522        2.75689
H          5.54681       -2.19507        4.07790
H         -1.65086        4.81206        0.91994
H         -0.60433        4.50964        2.30872
H         -0.38638        5.96833        1.34521
