64
-97.21405708
Cl        -1.63899       -1.26756       -2.52236
Cl         1.55232       -1.29646       -2.95764
P          1.94349       -0.66325        0.25079
C          2.12850       -2.33852        1.01764
C          3.73042       -0.27401       -0.07222
P         -1.28563       -0.12981        0.43726
C          1.28021        0.56861        1.42798
C         -0.14437        0.82450        1.50758
C         -0.34858        1.93411        2.42652
C          0.95599        2.37443        2.88987
C          1.96528        1.51851        2.29036
H         -1.31202        2.33809        2.74304
H          1.14295        3.18117        3.60262
Pd         0.16893       -0.91006       -1.24301
H          3.04482        1.58317        2.44173
C         -5.03235        2.14578       -0.83877
C         -4.89141        0.80353       -1.12853
C         -3.74847        0.13028       -0.73584
C         -2.75088        0.79620       -0.06064
C         -2.89596        2.13310        0.23493
C         -4.03477        2.81224       -0.15607
H         -5.92092        2.67318       -1.14549
H         -5.66784        0.28055       -1.66235
H         -3.62590       -0.91666       -0.96168
H         -2.11424        2.64763        0.76469
H         -4.14224        3.86012        0.07177
C         -2.61403       -3.94896        2.50533
C         -2.38721       -2.80658        3.24851
C         -1.99103       -1.64093        2.61711
C         -1.82312       -1.63053        1.25183
C         -2.05483       -2.76295        0.50637
C         -2.45060       -3.92932        1.13382
H         -2.92225       -4.85740        2.99673
H         -2.51685       -2.82239        4.31820
H         -1.80409       -0.74065        3.18091
H         -1.93467       -2.72149       -0.56430
H         -2.63239       -4.81879        0.55324
C          4.08489       -0.36424       -1.54049
H          3.91029        0.74103        0.30548
C          4.46403       -1.32492        0.78420
H          4.65312       -0.92281        1.79039
C          3.63656       -2.63301        0.89900
H          5.45515       -1.52845        0.35295
C          1.62859       -2.32040        2.44583
H          1.53707       -3.03657        0.40932
H          3.96547       -3.22552        1.76485
H          3.82779       -3.26379        0.01873
H          1.73156       -3.29907        2.92048
H          2.19390       -1.60028        3.04078
H          0.57743       -2.03100        2.49519
H          5.14803       -0.17791       -1.70750
H          3.85946       -1.35970       -1.92646
H          3.52285        0.35308       -2.14021
Fe         0.87144        2.46418        0.86202
C          2.23560        3.18391       -0.49965
C          1.42400        4.27665        0.00834
C          0.03788        3.99817       -0.32182
C         -0.00503        2.72638       -1.01855
C          1.35028        2.23104       -1.14032
H          3.32434        3.11339       -0.44532
H          1.79483        5.16557        0.52319
H         -0.81672        4.64072       -0.10141
H         -0.89222        2.25149       -1.44120
H          1.64464        1.32935       -1.67927
