171
-217.83583627
P         -1.46926        0.26260       -0.32521
P          1.72506       -0.67631       -0.07867
C         -0.67546        0.92998       -1.80015
C          0.98828       -1.80329       -1.29371
C          0.03471        0.08117       -2.63943
C          0.65564        0.61381       -3.78663
C          0.51880        1.96330       -4.06502
C         -0.17688        2.79433       -3.21421
C         -0.76269        2.27321       -2.07780
C          1.16730       -3.14859       -1.07062
C          0.52588       -4.08491       -1.85724
C         -0.32718       -3.66611       -2.85460
C         -0.53277       -2.31923       -3.09635
C          0.16155       -1.36580       -2.32682
Cl         1.27180       -0.62044        3.16501
Cl        -1.82151       -1.12865        2.69875
C         -1.50302       -1.91576       -4.15182
C          1.44457       -0.25422       -4.70423
H         -0.25891        3.84638       -3.43323
H         -1.27123        2.92832       -1.39238
H          1.81473       -3.47467       -0.27436
H          0.67734       -5.13708       -1.67888
H          0.96953        2.36269       -4.95747
H         -0.84713       -4.38932       -3.46006
C         -4.39871       -2.99171       -1.49222
C         -3.36967       -3.29960       -0.61141
C         -2.48971       -2.28437       -0.26188
C         -2.64189       -1.01839       -0.77034
C         -3.66184       -0.73315       -1.64338
C         -4.56380       -1.71834       -2.02529
H         -5.09047       -3.76821       -1.75922
H         -1.67538       -2.47831        0.41272
H         -3.75376        0.26457       -2.03503
C         -3.71485        3.65186        1.75314
C         -3.87653        3.45550        0.38715
C         -3.19990        2.39626       -0.20358
C         -2.36463        1.58805        0.53013
C         -2.22822        1.80068        1.88107
C         -2.90533        2.82674        2.52312
H         -4.23656        4.45957        2.22899
H         -3.31231        2.21636       -1.25883
H         -1.60847        1.14438        2.46180
C          5.20704       -2.61144        2.10328
C          3.92503       -3.10751        2.31078
C          2.87623       -2.50266        1.63195
C          3.10215       -1.45024        0.78057
C          4.37494       -0.97178        0.59108
C          5.45556       -1.54151        1.25083
H          6.02919       -3.06309        2.62396
H          1.86437       -2.83214        1.80060
H          4.52844       -0.13547       -0.06749
C          2.90005        3.50532       -1.34469
C          1.95192        3.35487       -0.34082
C          1.60404        2.06273        0.03158
C          2.15883        0.98055       -0.60993
C          3.08059        1.14759       -1.61389
C          3.48164        2.42298       -1.99319
H          3.20740        4.49753       -1.61939
H          0.89345        1.89190        0.82068
H          3.48644        0.27290       -2.09318
Pd        -0.08847       -0.58127        1.37608
C         -3.09868       -5.73172       -1.17524
C         -3.24677       -4.71488       -0.02916
C         -4.51117       -5.03372        0.78890
C         -2.02092       -4.84319        0.89812
H         -3.96295       -5.71264       -1.83793
H         -2.21434       -5.51227       -1.77179
H         -2.99906       -6.74506       -0.78665
H         -4.44824       -6.02645        1.23420
H         -4.64002       -4.30981        1.59336
H         -5.40382       -5.00318        0.16519
H         -1.93992       -5.85480        1.29530
H         -1.09801       -4.62483        0.36190
H         -2.09661       -4.16214        1.74560
C         -6.52400       -2.60397       -3.38780
C         -5.72309       -1.35722       -2.96540
C         -5.17391       -0.68362       -4.23800
C         -6.66852       -0.38661       -2.23537
H         -5.88155       -3.33141       -3.88387
H         -6.99035       -3.08322       -2.52735
H         -7.31919       -2.33516       -4.08310
H         -4.63728        0.23518       -4.00540
H         -4.48983       -1.34929       -4.76308
H         -5.98305       -0.42840       -4.92208
H         -6.14528        0.52214       -1.94131
H         -7.50590       -0.10163       -2.87200
H         -7.07009       -0.84611       -1.33242
C         -5.78441        3.54964       -1.24489
C         -4.73163        4.38216       -0.48915
C         -3.81599        5.09836       -1.49954
C         -5.46434        5.44623        0.35040
H         -6.43420        4.19062       -1.84049
H         -5.31511        2.83665       -1.92128
H         -6.40803        2.99162       -0.54672
H         -3.31784        4.38503       -2.15528
H         -4.38608        5.78485       -2.12518
H         -3.04588        5.67107       -0.98285
H         -6.11883        4.98102        1.08733
H         -4.75728        6.09108        0.87193
H         -6.08108        6.08218       -0.28460
C         -3.32195        1.69067        4.71367
C         -2.77678        2.96817        4.04762
C         -3.57169        4.17657        4.57768
C         -1.29703        3.15417        4.43145
H         -3.26542        1.76109        5.79964
H         -4.36363        1.52766        4.43844
H         -2.75502        0.81259        4.40655
H         -4.63510        4.07196        4.36342
H         -3.46150        4.26751        5.65823
H         -3.21739        5.10512        4.13029
H         -1.18377        3.23845        5.51204
H         -0.68992        2.31253        4.10027
H         -0.89384        4.06072        3.98215
C          4.90543       -4.84399        3.89451
C          3.62012       -4.26018        3.27775
C          2.88937       -5.38385        2.51811
C          2.72295       -3.73599        4.41459
H          5.43932       -4.09194        4.47507
H          4.67131       -5.67096        4.56481
H          5.57325       -5.22397        3.12156
H          3.49431       -5.74199        1.68534
H          2.68444       -6.22904        3.17493
H          1.93751       -5.03856        2.11618
H          1.77941       -3.35191        4.02855
H          2.49523       -4.52612        5.12969
H          3.21587       -2.92517        4.95033
C          7.92303       -1.69658        1.86431
C          6.86077       -0.96664        1.02025
C          6.86896        0.52433        1.40844
C          7.23011       -1.11480       -0.46705
H          8.91176       -1.27087        1.69341
H          7.70589       -1.60910        2.92873
H          7.97123       -2.75425        1.60592
H          6.17285        1.09793        0.79753
H          6.58065        0.65147        2.45167
H          7.86070        0.95657        1.27653
H          6.53044       -0.57388       -1.10255
H          8.22869       -0.72438       -0.66255
H          7.21182       -2.16265       -0.76602
C          0.75231        5.53656       -0.71204
C          1.35845        4.59399        0.34484
C          2.47483        5.32415        1.11212
C          0.24636        4.21249        1.33897
H          1.50375        5.87508       -1.42397
H         -0.03667        5.03420       -1.26978
H          0.31858        6.41920       -0.24228
H          3.26579        5.65246        0.43860
H          2.08553        6.20297        1.62587
H          2.92177        4.66684        1.85780
H         -0.56101        3.68199        0.83632
H          0.63448        3.57840        2.13528
H         -0.18170        5.10163        1.80145
C          5.05333        1.33890       -3.67693
C          4.57192        2.66047       -3.04766
C          5.77619        3.34587       -2.37609
C          4.02073        3.56016       -4.16869
H          4.23141        0.81212       -4.15952
H          5.81587        1.52537       -4.43303
H          5.48960        0.68203       -2.92533
H          6.57882        3.51610       -3.09345
H          5.49642        4.30977       -1.95244
H          6.16975        2.72759       -1.56933
H          4.77794        3.73957       -4.93175
H          3.16362        3.09211       -4.65036
H          3.70168        4.52759       -3.78314
H         -1.12296       -2.15475       -5.14598
H          0.79654       -0.74315       -5.43232
H         -1.71376       -0.84614       -4.11647
H         -2.45007       -2.44139       -4.02052
H          1.97702       -1.02924       -4.15064
H          2.18496        0.32563       -5.25705
