171
-217.84001385
P         -1.68114        0.74551        0.33784
P          1.48392       -0.22280       -0.39230
C         -1.02794        1.76483       -1.00184
C          0.47683       -0.99664       -1.66686
C         -0.45031        1.26037       -2.16129
C          0.12554        2.16420       -3.07386
C          0.07608        3.52282       -2.81084
C         -0.50848        4.00435       -1.65977
C         -1.04924        3.11689       -0.75014
C          0.59525       -2.34119       -1.91815
C         -0.16526       -2.93216       -2.90739
C         -1.04796       -2.16602       -3.63997
C         -1.19032       -0.80922       -3.39721
C         -0.39276       -0.20466       -2.40645
Cl         2.32782        1.45716        2.32673
Cl        -0.63150        1.06511        3.41958
C         -2.16108       -0.00896       -4.19328
C          0.80213        1.69870       -4.31420
H         -0.53346        5.06381       -1.46361
H         -1.48354        3.47564        0.17157
H          1.29052       -2.92964       -1.34501
H         -0.07055       -3.98763       -3.10390
H          0.51384        4.20663       -3.51859
H         -1.63249       -2.62113       -4.42114
C         -2.91516       -3.55490       -0.38199
C         -1.83434       -3.31671        0.45896
C         -1.43500       -1.99893        0.64417
C         -2.10201       -0.97276        0.01608
C         -3.18167       -1.22717       -0.79365
C         -3.61301       -2.53041       -1.00807
H         -3.24242       -4.56448       -0.54408
H         -0.60733       -1.77315        1.29299
H         -3.69545       -0.39588       -1.24407
C         -5.51133        2.73861        1.72851
C         -5.24041        2.64729        0.36764
C         -4.05371        2.03776       -0.01888
C         -3.17766        1.55106        0.91996
C         -3.46061        1.65377        2.25711
C         -4.63608        2.24878        2.69155
H         -6.42311        3.20651        2.04589
H         -3.80235        1.95193       -1.06326
H         -2.74312        1.28690        2.96802
C          3.90017       -3.44720        1.74746
C          4.06054       -3.25309        0.38189
C          3.32569       -2.24003       -0.22020
C          2.42910       -1.48787        0.49976
C          2.28206       -1.70650        1.85008
C          3.02551       -2.67933        2.50354
H          4.47509       -4.20605        2.24385
H          3.45694       -2.03679       -1.26829
H          1.59360       -1.10490        2.41166
C          4.41590        2.51281       -2.50861
C          3.78692        2.97247       -1.35696
C          2.90703        2.11608       -0.71082
C          2.65354        0.86447       -1.20954
C          3.27237        0.43101       -2.35717
C          4.18217        1.24246       -3.02395
H          5.11059        3.15725       -3.01161
H          2.42813        2.42165        0.20220
H          3.03506       -0.54499       -2.74523
Pd         0.37834        0.77949        1.43655
C          0.34126       -4.53259        0.79337
C         -1.13095       -4.44638        1.22781
C         -1.79182       -5.81419        0.96834
C         -1.21267       -4.14878        2.73650
H          0.41644       -4.77095       -0.26694
H          0.85437       -3.58937        0.96561
H          0.87034       -5.30649        1.34902
H         -1.73602       -6.08365       -0.08621
H         -1.28977       -6.59875        1.53446
H         -2.83887       -5.80777        1.27074
H         -2.25064       -4.04391        3.05159
H         -0.76446       -4.95320        3.31889
H         -0.69410       -3.22437        2.98511
C         -5.52843       -1.57658       -2.38510
C         -4.84916       -2.85581       -1.85929
C         -5.87086       -3.62287       -0.99836
C         -4.43194       -3.72125       -3.06077
H         -4.85230       -1.00201       -3.01677
H         -6.40766       -1.82115       -2.98094
H         -5.85376       -0.94296       -1.56050
H         -6.77548       -3.83870       -1.56663
H         -5.46460       -4.57111       -0.64874
H         -6.15342       -3.03664       -0.12409
H         -3.72483       -3.18586       -3.69204
H         -3.95813       -4.64712       -2.73664
H         -5.29570       -3.98284       -3.67176
C         -7.44998        3.82678       -0.09555
C         -6.18251        3.20263       -0.71010
C         -6.60848        2.06102       -1.65186
C         -5.44269        4.28773       -1.51483
H         -7.19873        4.65835        0.56256
H         -8.10811        4.21121       -0.87473
H         -8.01242        3.08917        0.47664
H         -7.10878        1.26942       -1.09444
H         -7.29625        2.42182       -2.41642
H         -5.74881        1.62417       -2.15862
H         -5.11393        5.09489       -0.86052
H         -4.56214        3.88123       -2.01127
H         -6.08967        4.71528       -2.28057
C         -4.92360        0.93996        4.81066
C         -4.90957        2.35336        4.19882
C         -6.26538        3.02504        4.48924
C         -3.79686        3.19044        4.85716
H         -3.96338        0.44235        4.67991
H         -5.13504        0.97933        5.87905
H         -5.68726        0.32320        4.33725
H         -6.29317        4.04044        4.09435
H         -7.08588        2.45894        4.04866
H         -6.44500        3.08458        5.56265
H         -2.82041        2.72647        4.72284
H         -3.75559        4.18767        4.41968
H         -3.97033        3.29755        5.92769
C          6.21697       -3.19239       -0.88109
C          5.03577       -4.08460       -0.46273
C          4.31169       -4.61292       -1.71726
C          5.58003       -5.29400        0.32216
H          5.87196       -2.32804       -1.44629
H          6.75054       -2.82404       -0.00513
H          6.92344       -3.74250       -1.50239
H          4.97036       -5.24968       -2.30756
H          3.43680       -5.19978       -1.43775
H          3.97843       -3.79979       -2.36067
H          6.22861       -5.90317       -0.30733
H          6.16745       -4.97469        1.18262
H          4.76679       -5.92868        0.67409
C          1.91165       -1.93704        4.67136
C          2.92792       -2.89737        4.02054
C          4.30727       -2.64193        4.65563
C          2.48683       -4.34463        4.30258
H          0.91200       -2.08421        4.26498
H          1.85656       -2.10301        5.74698
H          2.19722       -0.89717        4.51337
H          5.05648       -3.33046        4.26670
H          4.64405       -1.62701        4.44518
H          4.26823       -2.76763        5.73748
H          3.20659       -5.06238        3.91088
H          2.38902       -4.52112        5.37357
H          1.52394       -4.55045        3.83779
C          2.71142        5.13612       -0.68975
C          4.04231        4.36513       -0.76397
C          5.03081        5.17909       -1.62037
C          4.62972        4.21079        0.65140
H          2.27292        5.24069       -1.68172
H          1.98970        4.62072       -0.05710
H          2.86053        6.13466       -0.27955
H          5.19261        6.16708       -1.18947
H          5.99956        4.68340       -1.67972
H          4.64998        5.31875       -2.63197
H          3.94082        3.68412        1.31074
H          5.56074        3.64528        0.62193
H          4.83839        5.18362        1.09595
C          3.91172        0.30926       -5.35019
C          4.92283        0.69562       -4.25521
C          5.72559       -0.55182       -3.84176
C          5.89985        1.73320       -4.84068
H          3.19940       -0.43202       -4.99002
H          3.35356        1.18138       -5.68775
H          4.42086       -0.11397       -6.21595
H          6.29778       -0.94517       -4.68179
H          6.42357       -0.31221       -3.03981
H          5.06582       -1.34382       -3.48981
H          6.41610        1.32937       -5.71157
H          5.37273        2.63277       -5.15814
H          6.65797        2.01462       -4.11006
H         -1.69027        0.39640       -5.08960
H          0.97894        0.62284       -4.29521
H         -2.55443        0.82552       -3.61043
H         -3.00812       -0.61905       -4.51001
H          1.76819        2.19240       -4.42697
H          0.20333        1.92883       -5.19656
