171
-217.83903314
P         -1.66722        0.76781        0.28803
P          1.47644       -0.23061       -0.35780
C         -0.93308        1.84265       -0.96510
C          0.50767       -0.91792       -1.71313
C         -0.32759        1.38514       -2.12938
C          0.31571        2.31487       -2.96801
C          0.30525        3.65695       -2.62740
C         -0.30964        4.09393       -1.47394
C         -0.91892        3.17820       -0.63822
C          0.58203       -2.25462       -2.01774
C         -0.17229       -2.77485       -3.05080
C         -1.00294       -1.94649       -3.77703
C         -1.09325       -0.59407       -3.48779
C         -0.30700       -0.06538       -2.44668
Cl         2.24083        1.23791        2.51033
Cl        -0.78534        0.71028        3.47348
C         -1.99993        0.28733       -4.27465
C          1.03484        1.89129       -4.20088
H         -0.30476        5.14081       -1.21787
H         -1.37870        3.50081        0.28443
H          1.23279       -2.89395       -1.44721
H         -0.11570       -3.82547       -3.28448
H          0.79898        4.36231       -3.27456
H         -1.58988       -2.35054       -4.58421
C         -2.99708       -3.47637       -0.60075
C         -3.65835       -2.41147       -1.20091
C         -3.19368       -1.12964       -0.93715
C         -2.11120       -0.92935       -0.11648
C         -1.47554       -1.99552        0.47704
C         -1.91140       -3.29458        0.24849
H         -3.35195       -4.47232       -0.78183
H         -3.70181       -0.27474       -1.34919
H         -0.64661       -1.81710        1.13841
C         -5.52791        2.72800        1.63189
C         -4.68174        2.20317        2.60262
C         -3.49398        1.62291        2.18232
C         -3.16945        1.57280        0.85184
C         -4.01502        2.09619       -0.09482
C         -5.21510        2.68799        0.27743
H         -6.45176        3.17954        1.93792
H         -2.80377        1.21530        2.89839
H         -3.73312        2.04541       -1.13370
C          3.84163       -3.60416        1.59122
C          4.01370       -3.32153        0.24241
C          3.27999       -2.27510       -0.29948
C          2.38895       -1.56138        0.46438
C          2.23519       -1.86034        1.79792
C          2.96725       -2.87994        2.39054
H          4.40520       -4.40052        2.03966
H          3.40411       -2.01969       -1.33738
H          1.54992       -1.28644        2.39180
C          4.55749        2.58046       -2.13139
C          4.29153        1.37548       -2.77031
C          3.33376        0.54026       -2.20663
C          2.69051        0.89599       -1.04622
C          2.96794        2.08936       -0.43095
C          3.90152        2.96411       -0.96756
H          5.30803        3.22522       -2.54790
H          3.06954       -0.38949       -2.67966
H          2.46925        2.33069        0.49043
Pd         0.31497        0.66459        1.50936
C         -4.78656       -1.85923       -3.38292
C         -4.93189       -2.59579       -2.03938
C         -6.12394       -2.01176       -1.25966
C         -5.21147       -4.08221       -2.33379
H         -3.93431       -2.24555       -3.94008
H         -5.67687       -1.99089       -3.99763
H         -4.64211       -0.78977       -3.23744
H         -6.24711       -2.52255       -0.30488
H         -5.97525       -0.95253       -1.05291
H         -7.05077       -2.11781       -1.82309
H         -4.37159       -4.54145       -2.85507
H         -5.39604       -4.63878       -1.41526
H         -6.09356       -4.19179       -2.96461
C         -1.93647       -5.80749        0.68101
C         -1.24474       -4.46526        0.98889
C         -1.33433       -4.21152        2.50526
C          0.22962       -4.57597        0.56710
H         -2.98523       -5.78567        0.97670
H         -1.87931       -6.04419       -0.38131
H         -1.45767       -6.62175        1.22490
H         -2.37266       -4.09273        2.81412
H         -0.90945       -5.04275        3.06709
H         -0.79782       -3.30687        2.78651
H          0.31059       -4.77739       -0.50044
H          0.76662       -3.65461        0.78028
H          0.73076       -5.38422        1.09922
C         -6.36060        2.92228        4.37820
C         -5.00734        2.23932        4.10266
C         -3.90500        3.02124        4.84151
C         -5.06783        0.79780        4.64152
H         -6.57430        2.93928        5.44687
H         -6.35839        3.95376        4.02633
H         -7.17572        2.39029        3.88794
H         -4.11723        3.08082        5.90876
H         -2.93295        2.54423        4.72191
H         -3.82853        4.03712        4.45461
H         -5.31487        0.78785        5.70291
H         -5.82571        0.22054        4.11230
H         -4.11271        0.28875        4.51731
C         -5.37569        4.34338       -1.59826
C         -6.13567        3.25987       -0.81006
C         -7.40558        3.89281       -0.20973
C         -6.55793        2.12635       -1.76356
H         -4.49517        3.93201       -2.09054
H         -6.01054        4.78475       -2.36632
H         -5.04464        5.14128       -0.93382
H         -7.98945        3.15514        0.34049
H         -7.15459        4.71042        0.46578
H         -8.04360        4.29806       -0.99505
H         -7.21927        2.49980       -2.54517
H         -5.69359        1.67279       -2.24743
H         -7.08681        1.34388       -1.21995
C          6.03508       -3.15583       -1.23033
C          4.96919       -4.11145       -0.66222
C          4.16631       -4.73867       -1.81779
C          5.68145       -5.23991        0.10745
H          6.59821       -2.68486       -0.42491
H          6.73901       -3.69021       -1.86803
H          5.58050       -2.36509       -1.82568
H          3.38478       -5.39334       -1.43233
H          3.68945       -3.97428       -2.43037
H          4.81275       -5.32922       -2.46670
H          4.96246       -5.94853        0.51829
H          6.35120       -5.79360       -0.55049
H          6.28001       -4.83972        0.92556
C          4.23355       -3.01197        4.54874
C          2.85475       -3.19789        3.88871
C          2.38466       -4.65222        4.06888
C          1.85136       -2.26478        4.59662
H          4.97283       -3.68772        4.12045
H          4.59117       -1.99206        4.40849
H          4.18328       -3.20817        5.61959
H          3.09254       -5.35495        3.63098
H          2.27837       -4.90000        5.12484
H          1.42008       -4.80682        3.58779
H          2.15497       -1.22185        4.50754
H          0.85147       -2.36839        4.17763
H          1.78790       -2.49940        5.65892
C          4.53009       -0.31368       -4.65950
C          5.09468        0.96805       -4.01474
C          6.55309        0.70740       -3.59738
C          5.05300        2.09418       -5.06563
H          5.08720       -0.57092       -5.56025
H          4.60013       -1.16208       -3.97927
H          3.48573       -0.18278       -4.94196
H          7.15600        0.40100       -4.45201
H          7.00489        1.60258       -3.17105
H          6.60389       -0.08152       -2.84722
H          5.60873        1.81051       -5.95929
H          4.02821        2.30950       -5.36509
H          5.49223        3.01478       -4.68414
C          4.70415        3.99789        1.16930
C          4.18079        4.29117       -0.24916
C          2.87476        5.10248       -0.16148
C          5.23095        5.13498       -0.99625
H          4.92859        4.92193        1.70159
H          3.97089        3.44541        1.75562
H          5.61517        3.40142        1.12748
H          2.11084        4.56405        0.39830
H          3.04074        6.05797        0.33554
H          2.48058        5.30357       -1.15726
H          4.89738        5.37044       -2.00677
H          5.40819        6.07787       -0.47902
H          6.18390        4.60996       -1.05917
H         -1.43960        0.87473       -5.00249
H          0.53363        2.26540       -5.09476
H         -2.53260        0.98044       -3.62133
H         -2.74394       -0.29201       -4.82262
H          1.09982        0.80544       -4.27772
H          2.05251        2.28242       -4.20022
