59
-75.79752028
Cl         1.54079        0.63637        2.35568
P          1.51334        0.08331       -0.81726
P         -1.62885       -0.31454       -0.75424
C          0.51571        0.15251       -2.37207
H          0.16330        1.17772       -2.50985
H          1.16356       -0.09103       -3.22008
C         -0.64777       -0.78900       -2.24577
H         -0.29460       -1.81427       -2.12144
H         -1.30153       -0.76621       -3.12313
C          2.76500       -1.28065       -0.87341
H          2.60284       -1.83371       -1.80705
C          2.62665        1.54403       -0.55807
H          2.23929        2.09284        0.30949
C         -2.94343       -1.51667       -0.22417
H         -2.63228       -1.92536        0.74546
C         -2.67181        1.17454       -1.12015
H         -2.44637        1.48415       -2.14835
C          4.10441       -0.51581       -0.90119
H          4.88277       -1.11308       -0.40404
H          4.44438       -0.39445       -1.94038
C          3.98100        0.88202       -0.23572
H          4.80642        1.53371       -0.55442
H          4.09203        0.77553        0.85366
C         -4.17762       -0.60528       -0.06426
H         -5.09593       -1.18286       -0.24542
H         -4.24873       -0.25649        0.97683
C         -4.10785        0.62350       -1.00943
H         -4.78479        1.41766       -0.66196
H         -4.47655        0.33621       -2.00532
C          2.63025       -2.22237        0.31995
H          2.61482       -1.62245        1.23956
H          3.53586       -2.84062        0.39425
C          2.65201        2.45988       -1.77784
H          3.05963        1.90066       -2.63028
H          1.62158        2.71038       -2.06202
C         -3.15743       -2.66026       -1.21851
H         -4.17174       -3.06234       -1.08735
H         -3.14251       -2.25174       -2.23712
C         -2.38745        2.32631       -0.15858
H         -3.21125        3.05164       -0.21302
H         -2.41263        1.93963        0.86872
C          1.40456       -3.12020        0.24783
H          1.32887       -3.78072        1.11454
H          1.42878       -3.74944       -0.64388
H          0.48475       -2.53737        0.20374
C          3.44027        3.74326       -1.55479
H          3.41121        4.39755       -2.42918
H          4.48991        3.54093       -1.33726
H          3.04030        4.30760       -0.71019
C         -2.15021       -3.79139       -1.07194
H         -2.32706       -4.59282       -1.79295
H         -2.19681       -4.23272       -0.07442
H         -1.12821       -3.44541       -1.21653
C         -1.06908        3.03490       -0.43196
H         -0.22531        2.34879       -0.36711
H         -1.05309        3.46666       -1.43447
H         -0.88407        3.84448        0.27762
Cl        -1.70589       -0.17926        2.38777
Pd        -0.03447       -0.01065        0.90151
