111
-148.55280034
P         -2.63460        1.87521       -0.10747
P          0.14087        0.46318        0.41704
C         -1.85067        2.01459        1.52256
C         -0.61436        1.44174        1.72828
C         -3.53422        3.42710       -0.56432
C         -2.75764        4.25025       -1.56872
C         -2.47799        2.68357        2.55421
H         -3.45374        3.11268        2.39664
C         -1.85731        2.78471        3.78748
H         -2.34621        3.30738        4.59336
C         -0.61440        2.21518        3.98803
H         -0.13285        2.29201        4.94897
C          0.00741        1.53620        2.95564
H          0.96956        1.06958        3.09926
Pd        -1.00781        1.02636       -1.51216
Cl        -2.41046        1.46042       -3.20804
Cl         0.65726        0.15436       -2.74067
C         -4.88844        2.89568       -1.06880
C         -4.02452        0.65403       -0.17699
H         -1.77644        4.53026       -1.17800
H         -2.59442        3.68844       -2.48905
H         -3.29213        5.16561       -1.83313
H         -4.82609        2.74919       -2.15600
H         -5.67767        3.64755       -0.91592
H         -3.84320        0.03929       -1.06895
C         -5.26155        1.54817       -0.38607
C         -4.06953       -0.20618        1.06731
H         -3.67263        3.99161        0.36640
H         -5.72172        1.74875        0.59121
H         -6.02702        1.01242       -0.96774
H         -4.18193        0.41055        1.96089
H         -4.90674       -0.90745        1.03888
H         -3.15003       -0.78361        1.18144
C         -1.36970       -3.81428        0.80031
C         -0.82295       -3.36675       -0.42935
C         -0.35612       -2.06658       -0.50033
C         -0.35489       -1.24987        0.59918
C         -0.77754       -1.71462        1.81680
C         -1.25394       -3.00702        1.96138
O         -2.07560       -5.04524        0.85824
C         -0.79228       -4.23606       -1.69551
H         -0.01400       -1.65393       -1.43301
H         -0.75894       -1.03934        2.65403
C         -1.68366       -3.49158        3.35474
C          4.64547        1.04756        0.10237
C          3.78830        2.17532        0.20516
C          2.42659        1.95380        0.33512
C          1.90933        0.68521        0.29140
C          2.71943       -0.39590        0.06170
C          4.08889       -0.24607       -0.08165
O          6.04697        1.20249        0.25866
C          4.28135        3.63133        0.15510
H          1.74819        2.77893        0.47535
H          2.26654       -1.36981       -0.01105
C          4.91368       -1.48567       -0.46717
C         -0.65423       -5.72866       -1.34572
C         -2.07718       -3.99480       -2.50265
C          0.42135       -3.86888       -2.57937
C         -3.15949       -3.13259        3.58640
C         -1.47682       -5.00982        3.50339
C         -0.83368       -2.81223        4.45259
C         -3.46790       -4.92352        0.59359
H         -1.51578       -6.08793       -0.78885
H         -0.56787       -6.33573       -2.24655
H          0.23216       -5.89899       -0.73555
H         -2.96056       -4.25732       -1.92526
H         -2.16436       -2.94501       -2.78228
H         -2.08227       -4.58890       -3.41603
H          0.33265       -2.86650       -2.99514
H          1.34582       -3.92297       -2.00611
H          0.50926       -4.55629       -3.42030
H         -3.49246       -3.46559        4.56908
H         -3.30781       -2.05458        3.52845
H         -3.80034       -3.59555        2.83982
H         -2.10741       -5.56581        2.81422
H         -0.44089       -5.27773        3.29834
H         -1.71981       -5.34154        4.51256
H         -1.04346       -1.74602        4.52406
H         -1.04612       -3.24556        5.42969
H          0.23000       -2.94031        4.25358
H         -3.72951       -5.52409       -0.27741
H         -4.03610       -5.29480        1.44634
H         -3.73045       -3.88125        0.40757
C          6.46522        1.08599        1.60817
C          5.72380        3.74262       -0.36882
C          3.38812        4.44224       -0.81000
C          4.19616        4.24864        1.56052
C          6.32091       -1.11829       -0.96899
C          5.02826       -2.42336        0.74566
C          4.20426       -2.23212       -1.61866
H          5.82102        3.24678       -1.33400
H          6.01898        4.78462       -0.48981
H          6.42887        3.27856        0.31685
H          3.76619        5.45727       -0.92925
H          3.36314        3.97480       -1.79399
H          2.36447        4.51875       -0.44746
H          3.17515        4.21472        1.93953
H          4.82962        3.71211        2.26439
H          4.51544        5.29044        1.54819
H          6.85267       -1.99901       -1.32827
H          6.26166       -0.39951       -1.78553
H          6.91821       -0.67382       -0.17631
H          5.53999       -1.93541        1.57303
H          4.04272       -2.72770        1.09694
H          5.58626       -3.32378        0.49007
H          4.02562       -1.56201       -2.45912
H          3.24550       -2.63891       -1.30349
H          4.80934       -3.06570       -1.97421
H          6.19877        0.10513        1.99853
H          7.54657        1.21381        1.66172
H          5.98186        1.84909        2.21613
