59
-75.80263070
Cl         1.59273        0.20427        2.38351
P          1.48722        0.07895       -0.85908
P         -1.69262       -0.17622       -0.74380
C          0.45986        0.12182       -2.39582
H          0.14654        1.15330       -2.57344
H          1.07961       -0.18365       -3.24472
C         -0.73939       -0.76427       -2.20995
H         -0.43655       -1.79881       -2.03043
H         -1.40065       -0.75919       -3.08198
C          2.86226       -1.15884       -1.00430
H          2.77119       -1.62741       -1.99232
C          2.48217        1.61211       -0.52571
H          2.03273        2.11039        0.34213
C         -3.16406       -1.24735       -0.38445
H         -3.38275       -1.11087        0.68202
C         -2.59516        1.38551       -1.19806
H         -2.24757        1.66506       -2.19978
C          4.13550       -0.29365       -0.91522
H          4.93414       -0.86046       -0.41509
H          4.51496       -0.07959       -1.92519
C          3.86973        1.04271       -0.17351
H          4.65287        1.77684       -0.40880
H          3.93733        0.87474        0.91169
C         -4.25938       -0.57535       -1.22727
H         -4.20231       -0.96212       -2.25462
H         -5.25720       -0.85860       -0.85758
C         -4.08128        0.96599       -1.23431
H         -4.58639        1.38845       -0.35503
H         -4.58644        1.41412       -2.10284
C          2.77661       -2.22471        0.08212
H          2.68120       -1.72584        1.05559
H          3.72676       -2.77487        0.13035
C          2.48769        2.55614       -1.72459
H          2.97127        2.04904       -2.56988
H          1.45529        2.73581       -2.04984
C         -2.95038       -2.72921       -0.67940
H         -3.92767       -3.22010       -0.78679
H         -2.46904       -2.83374       -1.65973
C         -2.31564        2.51050       -0.20482
H         -3.07813        3.29300       -0.32490
H         -2.45672        2.12136        0.81258
C          1.63014       -3.19673       -0.13614
H          1.53595       -3.91532        0.68118
H          1.75977       -3.76218       -1.06101
H          0.68450       -2.66413       -0.22080
C          3.16632        3.88945       -1.44216
H          3.12330        4.56008       -2.30351
H          4.21857        3.76159       -1.18448
H          2.69034        4.40222       -0.60409
C         -2.14112       -3.42866        0.40167
H         -1.90815       -4.46343        0.14067
H         -2.68030       -3.44145        1.35094
H         -1.20108       -2.91087        0.58720
C         -0.93198        3.11953       -0.35429
H         -0.15650        2.36459       -0.23449
H         -0.80025        3.56268       -1.34319
H         -0.74414        3.90172        0.38471
Cl        -1.62974       -0.38836        2.43829
Pd        -0.03813       -0.11942        0.88093
