111
-148.55248123
P         -2.66537        2.07273        0.42642
P          0.14528        0.60748        0.26800
C         -1.51780        2.14718        1.83374
C         -0.27628        1.55681        1.73857
C         -3.72947        3.59115        0.39563
C         -3.69704        4.27937       -0.95072
C         -1.88510        2.78314        3.00316
H         -2.86415        3.22545        3.08554
C         -1.00284        2.83416        4.06862
H         -1.29051        3.33099        4.98080
C          0.24358        2.24733        3.96599
H          0.92950        2.28455        4.79625
C          0.60584        1.60155        2.79789
H          1.56752        1.12160        2.70734
Pd        -1.38180        1.27823       -1.33529
Cl        -3.08213        1.80822       -2.69609
Cl        -0.09885        0.42803       -2.96917
C         -5.11956        3.04533        0.78440
C         -3.96003        0.76349        0.61709
H         -4.28390        5.20089       -0.94526
H         -2.67529        4.52899       -1.24570
H         -4.11449        3.63171       -1.72247
H         -5.89966        3.64688        0.29535
H         -5.28328        3.17158        1.86472
H         -3.80105        0.03773       -0.19255
C         -5.27493        1.54343        0.41382
C         -3.84591        0.08461        1.96450
H         -3.33767        4.26565        1.16857
H         -6.07437        1.07763        1.00836
H         -5.59796        1.46073       -0.63445
H         -3.97619        0.80718        2.77229
H         -4.60317       -0.69321        2.08847
H         -2.86451       -0.37686        2.09143
C         -1.11055       -3.73278        0.85887
C         -0.87548       -2.91102        1.99092
C         -0.48338       -1.59995        1.78028
C         -0.38197       -1.08784        0.51375
C         -0.69304       -1.85208       -0.57854
C         -1.10982       -3.16388       -0.44037
O         -1.30789       -5.12952        1.02427
C         -0.99973       -3.43367        3.43049
H         -0.24048       -0.95854        2.60885
H         -0.59216       -1.40389       -1.55160
C         -1.53391       -3.94247       -1.69514
C          4.61012        0.61728       -0.62387
C          3.75415        1.48677       -1.34805
C          2.40525        1.49624       -1.03183
C          1.89431        0.63008       -0.10168
C          2.69938       -0.28670        0.52298
C          4.05756       -0.34423        0.25987
O          6.01954        0.72713       -0.76189
C          4.26772        2.41114       -2.46351
H          1.72793        2.17460       -1.52091
H          2.24485       -0.96864        1.22112
C          4.90473       -1.43066        0.94090
C         -1.37254       -2.29030        4.40177
C         -2.11052       -4.49387        3.53959
C          0.34689       -4.02800        3.87061
C         -2.15925       -2.98735       -2.73872
C         -0.30043       -4.61231       -2.31892
C         -2.60204       -4.99890       -1.35974
C         -0.11212       -5.89560        0.94758
H         -2.26715       -1.76877        4.06346
H         -1.57250       -2.68122        5.39917
H         -0.56700       -1.56409        4.49981
H         -3.05983       -4.09233        3.18650
H         -1.87873       -5.37395        2.94484
H         -2.24214       -4.81896        4.57132
H          0.29447       -4.39875        4.89396
H          0.64169       -4.85458        3.22876
H          1.13370       -3.27533        3.82378
H         -2.95910       -2.39632       -2.29330
H         -1.42134       -2.30367       -3.15546
H         -2.58147       -3.54767       -3.57242
H         -0.56908       -5.16376       -3.21952
H          0.44648       -3.86642       -2.58983
H          0.16429       -5.30812       -1.62438
H         -2.94757       -5.50644       -2.26000
H         -2.21345       -5.75641       -0.68392
H         -3.46314       -4.53437       -0.88042
H          0.74946       -5.24311        0.79990
H          0.01611       -6.46441        1.86841
H         -0.18034       -6.60058        0.11933
C          6.62221        1.64010        0.14645
C          4.67378        3.76366       -1.85954
C          5.46261        1.77867       -3.20022
C          3.16539        2.65209       -3.52058
C          5.44259       -0.89374        2.27575
C          4.05317       -2.69047        1.22347
C          6.07050       -1.87019        0.03677
H          5.03111        4.44446       -2.63174
H          3.82598        4.23320       -1.36124
H          5.46557        3.64503       -1.12379
H          5.19492        0.79860       -3.59364
H          5.78447        2.40272       -4.03353
H          6.31477        1.65042       -2.53743
H          3.56371        3.19069       -4.38005
H          2.75726        1.70673       -3.87725
H          2.34682        3.24885       -3.12126
H          6.03852       -1.64834        2.78851
H          6.06815       -0.01731        2.12457
H          4.62271       -0.60625        2.93367
H          4.67848       -3.50787        1.58182
H          3.30056       -2.50601        1.98873
H          3.54730       -3.02793        0.31912
H          5.69902       -2.21260       -0.92850
H          6.63434       -2.68412        0.49183
H          6.76266       -1.05146       -0.14385
H          5.86655        2.09077        0.79108
H          7.35634        1.11584        0.75800
H          7.13916        2.42174       -0.40995
