115
-277.93793254
P         -1.53579        0.64605        0.20717
P          2.12080        0.15014       -0.04769
C         -2.54209        2.13079        0.08523
C         -3.81426        2.10384        0.61807
H         -4.25338        1.16212        0.90943
C         -4.45507        3.29430        0.90520
H         -5.39131        3.29401        1.43965
C         -3.82772        4.50506        0.64731
C         -2.61176        4.51177       -0.01586
H         -2.12976        5.46043       -0.19495
C         -1.96069        3.32541       -0.28304
H         -0.96862        3.33915       -0.70397
C         -2.50823       -0.71647       -0.46519
C         -2.83458       -1.80305        0.31445
H         -2.53353       -1.83603        1.34808
C         -3.54359       -2.85280       -0.23100
H         -3.79518       -3.71974        0.36106
C         -3.93941       -2.81278       -1.55482
C         -3.62173       -1.71279       -2.32543
H         -3.94364       -1.69204       -3.35467
C         -2.90095       -0.67100       -1.78168
H         -2.63183        0.17768       -2.38824
C         -1.16090        0.38250        1.98561
C         -0.43806       -0.77627        2.18234
H         -0.13339       -1.35452        1.33215
C          0.06304       -1.13282        3.43151
C         -0.38022       -0.41144        4.53242
H         -0.04606       -0.68961        5.51796
C         -1.10712        0.74797        4.35408
H         -1.33386        1.36337        5.20835
C         -1.40135        1.23108        3.07824
C          1.94865        0.85855        1.62941
C          1.25689        2.05770        1.63903
H          0.85284        2.44337        0.71832
C          0.93065        2.69990        2.83394
C          1.53123        2.23559        3.99845
H          1.32971        2.73571        4.93100
C          2.23931        1.05077        3.99642
H          2.58760        0.64178        4.92962
C          2.35628        0.28238        2.83879
C         -1.62621        2.72179        2.95816
H         -2.26795        3.05600        3.78219
H         -2.22455        2.93095        2.07648
C         -0.30036        3.56591        2.92038
H         -0.31581        4.27251        2.08394
H         -0.22898        4.19909        3.81182
C          1.30974       -1.97407        3.51372
H          1.15490       -2.89759        2.94613
H          1.44593       -2.30289        4.54961
C          2.58420       -1.20154        3.00791
H          3.42585       -1.36214        3.69040
H          2.91878       -1.60762        2.05611
C          1.94223       -1.64245       -0.21570
C          3.02072       -2.45918        0.04909
C          0.70291       -2.19403       -0.46026
C          2.82253       -3.81322        0.23565
C          0.50536       -3.54528       -0.28414
C          1.55055       -4.35215        0.13403
C          3.64982        0.70811       -0.80906
C          4.25548       -0.01675       -1.80889
C          4.20988        1.88298       -0.36549
C          5.43675        0.43335       -2.36359
H          3.79933       -0.92774       -2.16165
C          5.39059        2.33144       -0.91929
H          3.72823        2.44178        0.42076
C          6.01002        1.60997       -1.92225
H          5.93674       -0.12435       -3.13977
H          5.85387        3.24052       -0.57115
Pd         0.26825        0.88373       -1.28257
Cl        -1.28445        1.79752       -2.63975
Cl         1.75172        1.02133       -2.97077
H         -0.48146       -3.97069       -0.37055
H         -0.13817       -1.56515       -0.69525
H          3.62609       -4.45056        0.57069
H          3.99898       -2.02804        0.19335
C         -5.75209        5.82056        1.65130
C         -4.22054        5.76263        1.38278
C         -3.37305        5.77359        2.69596
F         -6.37734        5.64449        0.47783
F         -6.10012        4.84332        2.49966
F         -6.06249        7.02078        2.16534
F         -3.88533        6.83848        0.66654
F         -3.60567        4.64495        3.37867
F         -2.08075        5.80565        2.34110
F         -3.68556        6.85061        3.42876
C         -3.99848       -5.29322       -1.89911
C         -4.72825       -3.94409       -2.16212
C         -6.17203       -3.92444       -1.58424
F         -4.57565       -6.25756       -2.63277
F         -2.71721       -5.13379       -2.26604
F         -4.06682       -5.59005       -0.59310
F         -4.81651       -3.78376       -3.48551
F         -6.73443       -2.76176       -1.94757
F         -6.86833       -4.95463       -2.08807
F         -6.11426       -4.00049       -0.24659
C          7.34988        3.57495       -2.75332
C          7.34461        2.04241       -2.47444
C          8.45207        1.61956       -1.46687
F          6.27536        3.85358       -3.50639
F          7.27645        4.24379       -1.59422
F          8.47279        3.89912       -3.41263
F          7.58562        1.41933       -3.63124
F          8.41682        0.28193       -1.37129
F          9.64848        2.02181       -1.92060
F          8.19052        2.16474       -0.26979
C          0.92893       -5.31313        2.29718
C          1.26769       -5.66724        0.81549
C          0.11734       -6.44208        0.11122
F          0.61914       -6.42744        2.97336
F          2.01130       -4.72626        2.82573
F         -0.08784       -4.44003        2.31619
F          2.35708       -6.43905        0.80781
F         -1.03426       -5.77207        0.26312
F          0.42610       -6.53131       -1.19142
F          0.02172       -7.66819        0.64936
