111
-148.55117803
P         -1.48106        2.72135        0.90599
P         -0.58480       -0.28938        0.42744
C         -1.30075        1.59200        2.31759
C         -1.00903        0.26026        2.09948
C         -0.21318        4.06259        0.91976
C          0.58449        4.04903       -0.36668
C         -1.43022        2.06449        3.60814
H         -1.59772        3.11513        3.77598
C         -1.30822        1.19593        4.67847
H         -1.41403        1.56539        5.68545
C         -1.04648       -0.14192        4.45745
H         -0.94948       -0.81889        5.29027
C         -0.88473       -0.60741        3.16545
H         -0.64679       -1.64249        2.98364
Pd        -1.57816        1.31474       -0.92390
Cl        -2.39584        3.04862       -2.09308
Cl        -1.59345       -0.11884       -2.64858
C         -1.05911        5.33742        1.12155
C         -3.04160        3.72550        0.88117
H         -0.07372        4.18349       -1.22739
H          1.32783        4.84953       -0.38727
H          1.10931        3.10071       -0.49994
H         -0.57594        6.18252        0.60964
H         -1.07766        5.60871        2.18745
H         -3.62462        3.35481        0.02697
C         -2.51764        5.15208        0.61365
C         -3.85607        3.60015        2.15129
H          0.43865        3.87636        1.78334
H         -3.18897        5.88517        1.08431
H         -2.55495        5.36558       -0.46483
H         -4.06342        2.55457        2.38942
H         -3.32643        4.03866        2.99738
H         -4.81177        4.12234        2.06532
C         -0.68077       -4.82201       -0.03238
C         -1.54269       -4.02146       -0.82500
C         -1.51390       -2.64891       -0.64308
C         -0.62416       -2.06751        0.22167
C          0.29739       -2.82831        0.89390
C          0.31524       -4.20767        0.76852
O         -0.83002       -6.23452       -0.01980
C         -2.49719       -4.61803       -1.87208
H         -2.17062       -2.00601       -1.20139
H          1.01417       -2.32332        1.51876
C          1.38741       -5.01551        1.51649
C          3.56803        1.34337       -0.50034
C          3.10374        1.31621        0.83956
C          1.85595        0.77337        1.09302
C          1.06866        0.30957        0.07222
C          1.47586        0.41211       -1.23176
C          2.69799        0.97330       -1.55794
O          4.90937        1.72420       -0.77129
C          3.94681        1.85638        2.00467
H          1.47650        0.71070        2.09745
H          0.79366        0.08700       -1.99805
C          3.03351        1.20430       -3.04009
C         -3.85530       -4.91020       -1.21695
C         -2.71411       -3.62626       -3.03826
C         -1.91492       -5.90547       -2.48372
C          2.67390       -4.17860        1.70213
C          0.85350       -5.40617        2.90290
C          1.78167       -6.27606        0.72555
C         -1.75451       -6.71160        0.94952
H         -4.29088       -3.99787       -0.81021
H         -4.55631       -5.32556       -1.94050
H         -3.75452       -5.62110       -0.40036
H         -3.27566       -2.74826       -2.72312
H         -1.76025       -3.29312       -3.44634
H         -3.27846       -4.09373       -3.84474
H         -0.93118       -5.71558       -2.91175
H         -1.80758       -6.68714       -1.73588
H         -2.55975       -6.29116       -3.27296
H          3.47696       -4.78994        2.11324
H          3.01514       -3.77495        0.74913
H          2.51970       -3.34946        2.39123
H         -0.04100       -6.01901        2.82209
H          1.59838       -5.97030        3.46359
H          0.59621       -4.51877        3.48084
H          2.11988       -6.01067       -0.27552
H          2.58649       -6.81583        1.22396
H          0.94179       -6.95898        0.62385
H         -1.25090       -7.40416        1.62375
H         -2.16768       -5.88087        1.52299
H         -2.56240       -7.24810        0.45233
C          5.81172        0.63147       -0.88762
C          3.05492        2.24356        3.20590
C          4.93358        0.77329        2.46526
C          4.70851        3.12405        1.57773
C          1.74654        1.50115       -3.84573
C          3.95773        2.42249       -3.21832
C          3.69383       -0.05699       -3.61621
H          3.64369        2.73090        3.98270
H          2.26980        2.93426        2.90159
H          2.58897        1.36945        3.65888
H          5.61564        0.49660        1.66567
H          5.52949        1.12120        3.30869
H          4.40139       -0.12596        2.77491
H          5.41657        2.90956        0.78052
H          4.01637        3.88361        1.21541
H          5.26813        3.54505        2.41258
H          1.98812        1.79657       -4.86633
H          1.09901        0.62832       -3.91167
H          1.18044        2.31213       -3.38818
H          4.14322        2.62268       -4.27328
H          3.50755        3.31194       -2.77856
H          4.92056        2.26616       -2.73920
H          3.02470       -0.91314       -3.53327
H          4.60989       -0.30208       -3.08412
H          3.94060        0.07765       -4.66901
H          6.19237        0.57256       -1.90681
H          6.65814        0.78857       -0.21907
H          5.31244       -0.30358       -0.63044
