111
-148.55227329
P         -2.71357        1.98057        0.43493
P          0.10115        0.56358        0.24746
C         -1.59154        2.02515        1.85931
C         -0.33398        1.47376        1.74345
C         -3.73906        3.52073        0.34712
C         -3.18011        4.53906       -0.62213
C         -1.97887        2.60782        3.04963
H         -2.97068        3.01695        3.14704
C         -1.09879        2.64643        4.11734
H         -1.40134        3.10098        5.04660
C          0.16506        2.10225        3.99465
H          0.84937        2.13014        4.82661
C          0.54645        1.50876        2.80518
H          1.52131        1.05965        2.70084
Pd        -1.44514        1.24361       -1.35640
Cl        -2.88996        2.20284       -2.76649
Cl        -0.08208        0.28783       -2.86703
C         -5.13034        2.96855       -0.00997
C         -4.05396        0.70570        0.54421
H         -3.78773        5.44663       -0.64158
H         -2.15848        4.81986       -0.35607
H         -3.15613        4.14150       -1.63639
H         -5.22066        2.92115       -1.10412
H         -5.91716        3.66241        0.32360
H         -4.00594        0.13337       -0.39199
C         -5.34340        1.54949        0.59183
C         -3.85148       -0.20047        1.73881
H         -3.75475        3.93733        1.36196
H         -5.66555        1.64263        1.63797
H         -6.16313        1.02530        0.07780
H         -2.90489       -0.73989        1.66922
H         -3.83121        0.37789        2.66443
H         -4.65404       -0.93688        1.82311
C         -1.02244       -3.81198        0.88800
C         -0.79643       -2.96883        2.00803
C         -0.43983       -1.65148        1.77460
C         -0.37410       -1.14806        0.50177
C         -0.69932       -1.92964       -0.57386
C         -1.07816       -3.25067       -0.41532
O         -1.10769       -5.21745        1.06000
C         -0.92632       -3.42773        3.46994
H         -0.20049       -1.00019        2.59707
H         -0.63920       -1.49338       -1.55530
C         -1.55968       -4.01032       -1.66255
C          4.57088        0.71113       -0.61185
C          3.69011        1.52807       -1.36695
C          2.33943        1.49827       -1.05983
C          1.85146        0.63704       -0.11299
C          2.68360       -0.23465        0.54020
C          4.04580       -0.24633        0.29268
O          5.97673        0.86910       -0.73910
C          4.17645        2.43416       -2.50940
H          1.64275        2.13982       -1.57090
H          2.24764       -0.91703        1.24955
C          4.92860       -1.27578        1.01544
C          0.47596       -3.54999        4.08917
C         -1.74303       -2.38639        4.26743
C         -1.66541       -4.77079        3.59958
C         -0.35775       -4.31729       -2.57090
C         -2.28504       -5.31943       -1.30703
C         -2.56706       -3.13030       -2.43664
C          0.15370       -5.85803        0.96367
H          0.41556       -3.85622        5.13319
H          1.07735       -4.28534        3.55783
H          1.00401       -2.59768        4.04874
H         -2.72169       -2.23574        3.81305
H         -1.89830       -2.71890        5.29346
H         -1.24004       -1.42192        4.31267
H         -2.63403       -4.72566        3.10294
H         -1.09632       -5.57948        3.14731
H         -1.83059       -5.02908        4.64532
H          0.14897       -3.40004       -2.86929
H          0.36902       -4.94773       -2.06215
H         -0.67579       -4.83418       -3.47588
H         -1.60771       -6.03158       -0.84170
H         -3.10048       -5.12965       -0.60994
H         -2.70057       -5.79241       -2.19651
H         -2.10030       -2.22776       -2.82758
H         -2.98507       -3.67205       -3.28457
H         -3.39102       -2.82961       -1.79005
H          0.60405       -5.65326       -0.00627
H          0.81963       -5.49151        1.74332
H          0.02050       -6.93381        1.07978
C          6.53276        1.84288        0.13521
C          3.07687        2.58732       -3.58571
C          4.51512        3.82418       -1.95077
C          5.40639        1.82955       -3.21104
C          5.44345       -0.67024        2.32987
C          4.12224       -2.55371        1.34493
C          6.11178       -1.70584        0.12962
H          2.71489        1.61233       -3.91107
H          2.22801        3.16110       -3.21719
H          3.46104        3.11125       -4.46056
H          3.64116        4.27356       -1.47984
H          5.30163        3.76745       -1.20206
H          4.85228        4.49172       -2.74336
H          5.71034        2.43750       -4.06277
H          6.25565        1.76208       -2.53575
H          5.18635        0.82542       -3.57201
H          6.04084        0.21951        2.14630
H          4.61207       -0.38440        2.97395
H          6.06172       -1.38446        2.87312
H          3.63078       -2.94343        0.45376
H          4.77575       -3.33383        1.73469
H          3.36202       -2.36718        2.10220
H          5.75536       -2.09839       -0.82214
H          6.70450       -2.48024        0.61590
H          6.77329       -0.86913       -0.08142
H          5.75493        2.27976        0.76277
H          7.28986        1.37687        0.76565
H          7.01292        2.62782       -0.44878
