111
-148.55088182
P         -2.29881        2.32662        0.67876
P          0.11819        0.28245        0.45718
C         -1.28881        1.96882        2.13640
C         -0.26990        1.04624        2.04640
C         -2.50973        4.14564        0.43321
C         -2.11676        4.52912       -0.97689
C         -1.55920        2.58404        3.34185
H         -2.34424        3.32040        3.39894
C         -0.82223        2.25156        4.46532
H         -1.03401        2.72930        5.40794
C          0.17521        1.29927        4.38174
H          0.74025        1.02964        5.25882
C          0.44986        0.69261        3.16923
H          1.21400       -0.06526        3.09312
Pd        -1.50467        1.01942       -1.04893
Cl        -3.32063        1.57209       -2.24431
Cl        -0.66543       -0.40821       -2.56808
C         -4.00210        4.37269        0.75138
C         -4.07157        1.81201        0.86597
H         -2.73855        4.00312       -1.70401
H         -2.23884        5.60105       -1.15060
H         -1.07606        4.26814       -1.18492
H         -4.38145        5.21258        0.15113
H         -4.11866        4.68221        1.80040
H         -4.24316        1.02236        0.12200
C         -4.84670        3.09299        0.49594
C         -4.36980        1.29304        2.25675
H         -1.86310        4.64669        1.16642
H         -5.78860        3.12969        1.06237
H         -5.13937        3.05763       -0.56378
H         -5.39795        0.93256        2.33784
H         -3.70160        0.47291        2.52793
H         -4.24093        2.08166        2.99929
C         -1.00643       -4.11996        0.68658
C         -1.98614       -3.10967        0.87887
C         -1.57713       -1.78688        0.83790
C         -0.28250       -1.45676        0.53237
C          0.63797       -2.42262        0.22199
C          0.29846       -3.76513        0.25082
O         -1.30994       -5.47098        0.99521
C         -3.48264       -3.39290        1.09317
H         -2.27404       -0.99075        1.04099
H          1.63315       -2.11464       -0.04770
C          1.34841       -4.78892       -0.21376
C          4.39396        1.10002       -0.94490
C          3.45145        0.51012       -1.82357
C          2.16507        0.30312       -1.35819
C          1.80936        0.60000       -0.06881
C          2.74310        1.09139        0.80692
C          4.05300        1.31216        0.41504
O          5.66517        1.50377       -1.43383
C          3.79298        0.13540       -3.27480
H          1.40235       -0.07965       -2.01121
H          2.43294        1.31748        1.81017
C          5.07366        1.79216        1.46002
C         -4.31523       -2.45924        0.18585
C         -3.86237       -4.83642        0.72038
C         -3.85039       -3.12540        2.56173
C          2.04402       -4.27145       -1.49257
C          2.40526       -4.97759        0.88643
C          0.71714       -6.14778       -0.56362
C         -1.05433       -5.79880        2.35052
H         -4.20508       -1.41493        0.47097
H         -4.00693       -2.55821       -0.85456
H         -5.37597       -2.70073        0.24756
H         -3.38688       -5.55363        1.38520
H         -4.93929       -4.98919        0.78677
H         -3.54797       -5.06514       -0.29733
H         -4.91486       -3.28485        2.73178
H         -3.30166       -3.78450        3.23159
H         -3.61588       -2.09880        2.84093
H          2.64643       -3.38747       -1.29150
H          2.71020       -5.02782       -1.90679
H          1.30839       -4.01634       -2.25497
H          3.18110       -5.67219        0.56534
H          2.88351       -4.02975        1.13186
H          1.96057       -5.37141        1.79795
H         -0.08081       -6.02337       -1.29486
H          1.45779       -6.83001       -0.98019
H          0.29151       -6.62258        0.31739
H         -0.00405       -5.63349        2.58361
H         -1.66091       -5.17714        3.00680
H         -1.29995       -6.84751        2.51896
C          5.71137        2.84680       -1.89957
C          3.54977        1.34996       -4.18346
C          5.25332       -0.33651       -3.39418
C          2.90272       -1.02758       -3.76879
C          5.07857        3.32776        1.50056
C          4.70501        1.26483        2.86600
C          6.48429        1.26348        1.14197
H          3.77180        1.11049       -5.22305
H          2.50988        1.67082       -4.12567
H          4.17242        2.19224       -3.89274
H          5.47894       -0.65948       -4.41017
H          5.94964        0.45864       -3.13977
H          5.44190       -1.17333       -2.72244
H          1.85997       -0.72792       -3.86124
H          3.22440       -1.37005       -4.75199
H          2.95828       -1.87431       -3.08661
H          5.35169        3.74773        0.53567
H          4.09122        3.70915        1.75996
H          5.78804        3.69641        2.24098
H          3.79184        1.72302        3.24297
H          4.56664        0.18402        2.85071
H          5.49416        1.49078        3.58282
H          7.19427        1.54983        1.91749
H          6.85301        1.65671        0.19809
H          6.47936        0.17629        1.07131
H          6.02075        2.86023       -2.94455
H          4.73213        3.31738       -1.80329
H          6.44427        3.41001       -1.32222
