105
-153.06839696
Cl         0.41947        3.20056        2.40145
Pd        -0.18571        1.79537        0.75363
P         -0.74144        0.47729       -1.13782
N          0.40800       -0.78093       -1.57661
C          0.48536       -2.17243       -1.39182
C         -0.00599       -2.85048       -0.24346
C          0.32534       -4.20710       -0.04598
C          0.07388       -4.85697        1.29382
C         -0.10284       -6.37717        1.18582
C          1.10806       -6.99479        0.47759
C          1.30111       -6.39592       -0.92810
C          1.00625       -4.91694       -1.03929
C          1.43194       -4.24512       -2.17842
C          1.20874       -2.90162       -2.33455
H          1.58513       -2.38599       -3.20118
H          1.96812       -4.79177       -2.93574
H          2.32695       -6.57481       -1.27445
H          2.00796       -6.81192        1.07830
H         -0.25924       -6.83017        2.17499
H          0.93124       -4.63625        1.94135
C         -0.69191       -2.10500        0.83869
C          0.07028       -1.18459        1.59837
C         -0.53330       -0.52754        2.66913
C         -1.84794       -0.76320        2.97805
C         -2.61119       -1.66577        2.24478
C         -4.04363       -1.89430        2.64662
C         -4.56371       -3.26856        2.20306
C         -4.31942       -3.46543        0.70430
C         -2.82558       -3.34704        0.34898
C         -2.03795       -2.34508        1.16707
H         -2.36024       -4.33258        0.45056
H         -4.88791       -2.70885        0.15284
H         -5.62869       -3.38641        2.44886
H         -4.66185       -1.10250        2.20710
H         -2.30656       -0.23855        3.79890
H          0.04209        0.18548        3.23225
N          1.38407       -0.91232        1.21692
P          1.88955        0.76665        1.09041
C          2.71543        1.05306       -0.47414
C          2.39914        2.17493       -1.20344
C          2.89152        2.32021       -2.48650
C          3.70272        1.34351       -3.04652
C          4.02093        0.22409       -2.28966
C          3.53438        0.08253       -1.00262
H          3.76224       -0.79751       -0.42195
H          4.64262       -0.54288       -2.71939
C          4.17987        1.47164       -4.45108
H          2.62655        3.18481       -3.07095
H          1.75026        2.92479       -0.77938
C          2.86701        1.29842        2.48732
C          2.92291        0.49312        3.59899
C          3.65791        0.89358        4.70058
C          4.34413        2.10085        4.68876
C          4.26805        2.90228        3.55684
C          3.53304        2.49961        2.45625
H          3.46644        3.12060        1.57692
H          4.78348        3.84739        3.54455
C          5.11025        2.54747        5.88507
H          3.70006        0.27102        5.57790
H          2.39406       -0.44659        3.59515
H          1.67782       -1.34937        0.35048
H          1.26780       -0.28358       -1.77917
C         -0.61141        1.68837       -2.46063
C         -1.05538        2.97954       -2.30630
C         -0.91530        3.88682       -3.33857
C         -0.32881        3.50662       -4.53812
C          0.09018        2.19178       -4.68796
C         -0.05076        1.28762       -3.65053
H          0.28217        0.26850       -3.76164
H          0.53165        1.88135       -5.61952
C         -0.19038        4.47817       -5.65791
H         -1.26188        4.89900       -3.21826
H         -1.51364        3.27075       -1.37685
C         -2.38971       -0.20776       -1.30757
C         -2.56464       -1.13157       -2.31130
C         -3.82743       -1.62946       -2.58240
C         -4.92502       -1.20243       -1.84809
C         -4.73145       -0.25957       -0.84737
C         -3.46958        0.23691       -0.58356
H         -3.32848        1.00262        0.15849
H         -5.57859        0.09441       -0.28507
C         -6.28723       -1.71962       -2.15541
H         -3.96717       -2.35081       -3.36922
H         -1.70862       -1.45462       -2.88283
Cl        -2.21616        2.74642        0.64574
H          0.65835       -6.92548       -1.64158
H         -1.01114       -6.59692        0.61101
H          1.00944       -8.08821        0.42514
H         -0.78249       -4.39802        1.79940
H         -4.72353       -4.43104        0.36936
H         -2.70850       -3.09387       -0.71077
H         -4.14073       -1.77807        3.73357
H         -4.04026       -4.05368        2.76315
H          4.28828        2.51901       -4.73624
H          5.14970        0.99003       -4.58326
H          3.47530        1.00657       -5.14206
H          5.54198        1.69754        6.41545
H          5.92835        3.21211        5.60406
H          4.46350        3.08498        6.57982
H         -1.06601        4.44760       -6.30769
H         -0.08380        5.49746       -5.28407
H          0.68807        4.25552       -6.26531
H         -6.25363       -2.77581       -2.42672
H         -6.95176       -1.61974       -1.29600
H         -6.73032       -1.17176       -2.98807
