171
-217.83564266
P         -1.49787        0.19633       -0.17105
P          1.71966       -0.68436        0.24137
C         -0.69282        0.74621       -1.69088
C          0.87394       -1.89773       -0.79781
C          0.05562       -0.17666       -2.41109
C          0.71127        0.23764       -3.58652
C          0.54677        1.54169       -4.02317
C         -0.21138        2.44140       -3.30390
C         -0.82210        2.04094       -2.13195
C          0.92468       -3.18847       -0.32668
C          0.25963       -4.20009       -0.99193
C         -0.47347       -3.90380       -2.12079
C         -0.55100       -2.60821       -2.60314
C          0.14477       -1.58131       -1.93800
Cl         1.20185       -0.44765        3.44257
Cl        -1.92310       -1.03379        2.89139
C         -1.38331       -2.33512       -3.80685
C          1.55940       -0.70523       -4.36660
H         -0.32121        3.45517       -3.65270
H         -1.38921        2.74823       -1.55261
H          1.48193       -3.39977        0.57422
H          0.30670       -5.21192       -0.62381
H          1.01983        1.84977       -4.93993
H         -1.00670       -4.68456       -2.63669
C         -4.66147       -2.83770       -1.32356
C         -3.88105       -3.09117       -0.20167
C         -2.92071       -2.15240        0.14581
C         -2.74095       -1.02107       -0.60737
C         -3.51011       -0.79313       -1.72224
C         -4.49352       -1.69917       -2.10243
H         -5.43398       -3.53266       -1.59308
H         -2.32466       -2.29272        1.02919
H         -3.32685        0.09401       -2.30306
C         -3.83250        3.66356        1.65971
C         -4.00363        3.34107        0.31913
C         -3.27943        2.27197       -0.19115
C         -2.38738        1.57932        0.59093
C         -2.24132        1.91381        1.91656
C         -2.96601        2.95337        2.48136
H         -4.39682        4.47545        2.07611
H         -3.41988        1.97568       -1.21630
H         -1.58253        1.34112        2.54165
C          5.78248       -2.42966        1.23004
C          5.29212       -2.52708       -0.06605
C          4.03081       -2.00357       -0.32202
C          3.30564       -1.40712        0.68081
C          3.80635       -1.32278        1.95461
C          5.05967       -1.83673        2.25772
H          6.75704       -2.82776        1.44555
H          3.59937       -2.05957       -1.30719
H          3.19827       -0.86487        2.71213
C          2.75669        3.42100       -1.37768
C          1.76109        3.33592       -0.41249
C          1.43519        2.07603        0.07630
C          2.06734        0.95601       -0.41251
C          3.04986        1.06270       -1.36598
C          3.42187        2.30414       -1.86494
H          3.03584        4.38982       -1.74899
H          0.68143        1.96149        0.83401
H          3.53703        0.16670       -1.70748
Pd        -0.13663       -0.48974        1.64555
C         -5.14898       -5.27475        0.12330
C         -4.05614       -4.33925        0.67417
C         -4.45158       -3.90512        2.09793
C         -2.72704       -5.11567        0.72061
H         -5.25012       -6.16139        0.74911
H         -6.11776       -4.77613        0.10026
H         -4.90665       -5.60846       -0.88557
H         -4.59925       -4.77062        2.74341
H         -3.68181       -3.28026        2.54930
H         -5.37856       -3.33246        2.08198
H         -1.92838       -4.50911        1.14607
H         -2.82116       -6.01563        1.32787
H         -2.42260       -5.41496       -0.28191
C         -6.83082       -1.10477       -2.75368
C         -5.42679       -1.43090       -3.29262
C         -5.49903       -2.67241       -4.20275
C         -4.93476       -0.24157       -4.14186
H         -6.80015       -0.23055       -2.10352
H         -7.52432       -0.89671       -3.56826
H         -7.23095       -1.93693       -2.17514
H         -4.51052       -2.94126       -4.57278
H         -5.90664       -3.53360       -3.67542
H         -6.13812       -2.48352       -5.06520
H         -3.92329       -0.41436       -4.50869
H         -5.58024       -0.09120       -5.00711
H         -4.94000        0.68415       -3.56729
C         -4.16467        4.66453       -1.80330
C         -4.95946        4.10491       -0.60774
C         -5.64092        5.28080        0.11772
C         -6.04944        3.14207       -1.11431
H         -3.36221        5.31749       -1.46019
H         -3.71625        3.86487       -2.39171
H         -4.81028        5.24129       -2.46531
H         -4.90340        5.99130        0.49074
H         -6.30540        5.81898       -0.55820
H         -6.24039        4.92998        0.95753
H         -5.61679        2.31564       -1.67661
H         -6.60870        2.72031       -0.27943
H         -6.75345        3.65742       -1.76740
C         -1.36774        3.50960        4.34708
C         -2.83756        3.22211        3.98880
C         -3.31747        1.97621        4.75725
C         -3.68853        4.42890        4.42777
H         -1.01083        4.39754        3.82689
H         -1.25609        3.68305        5.41718
H         -0.72092        2.67519        4.07884
H         -4.35110        1.74222        4.50368
H         -2.71009        1.10479        4.51513
H         -3.26011        2.13435        5.83390
H         -3.38418        5.33423        3.90271
H         -4.74682        4.25488        4.23441
H         -3.57585        4.61286        5.49616
C          6.44880       -4.63857       -0.76778
C          6.14091       -3.18303       -1.16398
C          7.45531       -2.39769       -1.32608
C          5.40744       -3.19113       -2.52022
H          7.01511       -4.68513        0.16163
H          5.52642       -5.20162       -0.62627
H          7.03413       -5.13762       -1.53991
H          8.07288       -2.82885       -2.11382
H          7.25331       -1.35878       -1.58603
H          8.03688       -2.40466       -0.40497
H          6.02005       -3.66271       -3.28846
H          4.47203       -3.74698       -2.45721
H          5.18545       -2.17738       -2.85299
C          6.96572       -0.95974        3.63083
C          5.65380       -1.76460        3.67161
C          5.93360       -3.19110        4.17902
C          4.68964       -1.07681        4.65853
H          7.40209       -0.87418        4.62586
H          7.70215       -1.43482        2.98376
H          6.78758        0.04668        3.25242
H          6.65266       -3.70466        3.54193
H          6.33820       -3.17290        5.19083
H          5.01713       -3.78073        4.19233
H          5.12346       -1.03379        5.65737
H          4.47385       -0.05460        4.34859
H          3.74812       -1.62075        4.73114
C          0.53218        5.43767       -1.06131
C          1.10500        4.62149        0.11298
C          2.16476        5.45522        0.85512
C         -0.04524        4.31292        1.08624
H          1.31099        5.72756       -1.76517
H         -0.21412        4.86051       -1.60506
H          0.05303        6.34880       -0.70335
H          1.73084        6.37089        1.25646
H          2.58679        4.88900        1.68526
H          2.98207        5.73457        0.19104
H         -0.50888        5.23172        1.44489
H         -0.81882        3.72326        0.59759
H          0.31554        3.76181        1.95365
C          3.99896        3.10580       -4.17208
C          4.55545        2.46746       -2.88750
C          5.19364        1.11135       -3.24899
C          5.64953        3.37212       -2.29037
H          3.23354        2.47091       -4.61551
H          3.55212        4.07854       -3.96986
H          4.78763        3.24661       -4.91098
H          5.61514        0.62989       -2.36677
H          4.46157        0.43791       -3.69310
H          6.00005        1.24264       -3.97031
H          5.26485        4.36678       -2.06842
H          6.03539        2.94766       -1.36366
H          6.48344        3.48483       -2.98299
H         -2.36960       -2.78760       -3.69984
H          1.98390       -1.47800       -3.72370
H         -0.92013       -2.74839       -4.70396
H         -1.52716       -1.26541       -3.96233
H          2.38904       -0.18306       -4.84530
H          0.97904       -1.19642       -5.14860
