105
-153.07262663
Cl        -0.07651        1.77333        3.10067
Pd        -0.58462        1.17507        0.98022
P         -1.28441        0.50802       -1.14995
N         -1.02516       -1.07400       -1.86466
C          0.03618       -1.95069       -1.61427
C          0.31297       -2.45214       -0.31503
C          1.35690       -3.38253       -0.13976
C          1.60831       -3.94505        1.23900
C          2.50341       -5.19363        1.26468
C          3.71032       -5.02183        0.33802
C          3.25392       -4.78200       -1.10900
C          2.11645       -3.79940       -1.23615
C          1.80760       -3.31698       -2.50175
C          0.78659       -2.42299       -2.69122
H          0.56155       -2.06053       -3.67898
H          2.38765       -3.65550       -3.34358
H          4.09527       -4.42867       -1.71888
H          4.30983       -4.16835        0.67840
H          2.82912       -5.42011        2.28978
H          2.05940       -3.15862        1.85481
C         -0.61774       -2.18184        0.80586
C         -0.14221       -1.57727        2.00206
C         -1.01655       -1.47525        3.08877
C         -2.31256       -1.91223        2.99680
C         -2.79683       -2.50208        1.83572
C         -4.22743       -2.98910        1.83276
C         -4.72101       -3.54332        0.48472
C         -3.61042       -4.30777       -0.24105
C         -2.40407       -3.39221       -0.49153
C         -1.94189       -2.65760        0.74255
H         -1.56764       -3.97423       -0.89837
H         -3.98017       -4.73773       -1.18273
H         -5.06122       -2.71732       -0.15166
H         -4.87533       -2.16729        2.16336
H         -2.97522       -1.80264        3.83860
H         -0.66860       -1.00292        3.99062
N          1.13541       -1.00786        2.09846
P          1.56144        0.19718        0.88278
C          2.67416       -0.37579       -0.39107
C          2.50657        0.08165       -1.67346
C          3.40204       -0.29334       -2.65793
C          4.48127       -1.11248       -2.35345
C          4.64271       -1.54776       -1.04438
C          3.74334       -1.17287       -0.06216
H          3.86849       -1.49557        0.95918
H          5.47552       -2.18448       -0.79954
C          5.42129       -1.55365       -3.42021
H          3.26356        0.04509       -3.67046
H          1.67285        0.72441       -1.89608
C          2.39352        1.61970        1.60042
C          3.16682        1.48439        2.72790
C          3.80939        2.59044        3.25392
C          3.68502        3.83450        2.65072
C          2.91078        3.94641        1.50321
C          2.26951        2.83966        0.97782
H          1.66920        2.92271        0.08502
H          2.81075        4.90492        1.02342
C          4.37984        5.01895        3.22718
H          4.41295        2.49452        4.14035
H          3.27185        0.51635        3.18993
H          1.32917       -0.55554        2.98241
H         -1.33398       -0.97259       -2.82295
C         -0.51656        1.79981       -2.13273
C         -0.47756        3.08348       -1.63980
C          0.14598        4.08146       -2.36516
C          0.73209        3.80101       -3.59190
C          0.65668        2.50629       -4.08732
C          0.03297        1.50987       -3.35927
H         -0.00664        0.50140       -3.73555
H          1.09414        2.28223       -5.04526
C          1.38916        4.87866       -4.38194
H          0.17911        5.08718       -1.98224
H         -0.94760        3.30226       -0.69386
C         -3.06100        0.75623       -1.20073
C         -3.86522       -0.01384       -0.39815
C         -5.23606        0.16779       -0.41642
C         -5.81103        1.11405       -1.25323
C         -4.98171        1.88495       -2.05654
C         -3.61087        1.70414       -2.03106
H         -2.96686        2.30394       -2.65330
H         -5.41596        2.63287       -2.69777
C         -7.28409        1.33120       -1.25174
H         -5.86838       -0.41628        0.22997
H         -3.41073       -0.73504        0.25985
Cl        -2.64085        1.99832        1.39781
H          2.94447       -5.73222       -1.56038
H          1.92053       -6.06550        0.94214
H          4.37721       -5.89349        0.39975
H          0.64259       -4.16758        1.71021
H         -3.29676       -5.16228        0.37161
H         -2.65443       -2.65635       -1.26408
H         -4.32591       -3.76335        2.60312
H         -5.60339       -4.18321        0.62630
H          5.06675       -2.47084       -3.89263
H          5.52189       -0.79272       -4.19540
H          6.41539       -1.74658       -3.01454
H          4.08374        5.17504        4.26547
H          5.46215        4.88464        3.20164
H          4.14304        5.92852        2.67359
H          1.82487        5.63570       -3.72836
H          2.19099        4.47794       -5.00373
H          0.66986        5.37249       -5.03666
H         -7.63050        1.69151       -2.22139
H         -7.81807        0.40546       -1.03267
H         -7.56515        2.06837       -0.49843
