111
-148.55687589
P         -2.28729        2.42309        0.31523
P         -0.08372        0.15857        0.53428
C         -1.60300        1.98987        1.93348
C         -0.65501        0.99490        2.02431
C         -2.35051        4.25497        0.07131
C         -1.30245        4.70031       -0.92540
C         -2.03092        2.64175        3.07200
H         -2.77699        3.41583        2.99327
C         -1.50262        2.29323        4.30318
H         -1.83534        2.80096        5.19375
C         -0.55044        1.29555        4.39172
H         -0.13889        1.02467        5.35006
C         -0.12462        0.64397        3.24773
H          0.62013       -0.13482        3.29826
Pd        -1.13664        1.19550       -1.25358
Cl        -2.48072        2.04958       -2.82955
Cl         0.10318       -0.10959       -2.59456
C         -3.80417        4.49530       -0.37815
C         -4.08440        2.00891        0.16241
H         -1.45850        4.21702       -1.89166
H         -1.33690        5.78041       -1.08636
H         -0.29695        4.43866       -0.58730
H         -3.83583        4.50291       -1.47640
H         -4.14216        5.49515       -0.06610
H         -4.19928        1.52277       -0.81564
C         -4.76115        3.39211        0.15671
C         -4.53629        1.08800        1.27610
H         -2.17088        4.70724        1.05523
H         -5.06940        3.63989        1.18171
H         -5.69116        3.36032       -0.43099
H         -3.95001        0.16631        1.29116
H         -4.41294        1.56636        2.24918
H         -5.59018        0.81990        1.17094
C         -1.24694       -4.24110        0.37252
C         -0.10434       -3.84872        1.11994
C          0.23362       -2.50550        1.14410
C         -0.55331       -1.56764        0.52783
C         -1.73197       -1.92673       -0.07303
C         -2.12791       -3.25195       -0.13921
O         -1.46524       -5.61035        0.07272
C          0.77967       -4.82678        1.91250
H          1.13128       -2.17766        1.64047
H         -2.34233       -1.15674       -0.51312
C         -3.49328       -3.56251       -0.77534
C          4.33633        0.97803       -0.19557
C          3.78829       -0.27332       -0.57690
C          2.45044       -0.51213       -0.31287
C          1.65771        0.45370        0.24860
C          2.15506        1.70253        0.51767
C          3.48337        2.01053        0.27201
O          5.74041        1.18349       -0.26054
C          4.62673       -1.36535       -1.25948
H          2.00184       -1.45854       -0.55778
H          1.48308        2.43924        0.92415
C          3.97461        3.44485        0.52385
C          0.10842       -6.19715        2.10942
C          2.12014       -5.01047        1.18192
C          1.04713       -4.25048        3.32065
C         -3.98416       -4.98111       -0.43850
C         -4.55339       -2.57736       -0.23376
C         -3.39343       -3.39737       -2.30102
C         -0.82052       -6.02163       -1.12145
H         -0.01966       -6.71366        1.16122
H          0.70725       -6.83889        2.75529
H         -0.87563       -6.08146        2.56235
H          2.63273       -4.05635        1.06692
H          2.77756       -5.67998        1.73599
H          1.97402       -5.43022        0.18857
H          1.60639       -4.95947        3.93063
H          1.62834       -3.33088        3.27870
H          0.10936       -4.03401        3.83161
H         -3.99893       -5.13647        0.63969
H         -4.99067       -5.14971       -0.82067
H         -3.33607       -5.73705       -0.87547
H         -5.54782       -2.84100       -0.59296
H         -4.57423       -2.59416        0.85554
H         -4.35669       -1.55573       -0.55420
H         -4.35608       -3.58257       -2.77673
H         -3.07802       -2.38774       -2.56286
H         -2.67046       -4.09018       -2.72649
H          0.24943       -5.83289       -1.05348
H         -0.99034       -7.08772       -1.27299
H         -1.21939       -5.47020       -1.97076
C          6.43144        0.86511        0.94070
C          3.73305       -2.27984       -2.12845
C          5.67908       -0.74207       -2.19426
C          5.31333       -2.22796       -0.19009
C          5.12164        3.81662       -0.43345
C          2.83648        4.46090        0.27364
C          4.43666        3.57491        1.98301
H          3.12951       -1.69013       -2.81803
H          4.33959       -2.96694       -2.71792
H          3.06456       -2.88641       -1.51905
H          6.39521       -0.14100       -1.63892
H          6.23676       -1.51252       -2.72604
H          5.20241       -0.09738       -2.93192
H          4.57627       -2.67751        0.47432
H          5.89040       -3.03110       -0.64777
H          5.99015       -1.63523        0.41992
H          5.42377        4.85491       -0.29883
H          5.99751        3.19534       -0.26519
H          4.81341        3.68448       -1.47005
H          2.04583        4.37369        1.01738
H          3.21174        5.48271        0.32520
H          2.39832        4.31503       -0.71338
H          4.78663        4.58522        2.19333
H          5.24792        2.88510        2.20305
H          3.61827        3.35172        2.66718
H          5.74281        0.45055        1.67799
H          7.21668        0.14015        0.72671
H          6.89960        1.76240        1.34462
