111
-148.55393550
P         -1.61529        2.75323       -0.26721
P         -0.48478       -0.09055        0.50093
C         -1.73576        2.16835        1.44792
C         -1.30249        0.89874        1.76608
C         -0.41848        4.15880       -0.37670
C          0.77908        3.77434       -1.21931
C         -2.22577        2.99382        2.43981
H         -2.52371        4.00016        2.19553
C         -2.30684        2.53322        3.74269
H         -2.69371        3.17624        4.51630
C         -1.88668        1.25424        4.05435
H         -1.94494        0.89811        5.06969
C         -1.37224        0.43726        3.06370
H         -1.00754       -0.55146        3.29436
Pd        -1.18008        0.84355       -1.49511
Cl        -2.16228        1.75048       -3.29032
Cl        -0.58445       -1.09236       -2.47788
C         -1.26360        5.30706       -0.96486
C         -3.15448        3.59338       -0.86318
H          1.48236        4.60477       -1.31647
H          1.31502        2.92666       -0.78754
H          0.46594        3.48370       -2.22424
H         -1.05885        5.37711       -2.04193
H         -0.94481        6.27206       -0.54291
H         -3.25280        3.31937       -1.92153
C         -2.78756        5.08355       -0.74665
C         -4.39047        3.17006       -0.09842
H         -0.11986        4.38490        0.65537
H         -3.07637        5.44519        0.24966
H         -3.37869        5.67964       -1.45874
H         -4.31261        3.43438        0.95632
H         -5.28672        3.65563       -0.49109
H         -4.53866        2.08925       -0.15493
C         -1.00389       -4.59753        0.88207
C          0.29874       -4.04505        0.78853
C          0.41953       -2.67076        0.67433
C         -0.68088       -1.85534        0.71589
C         -1.93370       -2.37630        0.90690
C         -2.12533       -3.74256        1.03820
O         -1.18916       -6.00189        0.77919
C          1.56955       -4.90843        0.75871
H          1.38406       -2.21680        0.53207
H         -2.76717       -1.69547        0.94017
C         -3.54035       -4.27605        1.31167
C          3.80477        1.38130        0.07371
C          3.29159        0.42775       -0.84227
C          1.98430        0.00438       -0.68093
C          1.22997        0.41948        0.38379
C          1.75188        1.26648        1.32536
C          3.04871        1.74012        1.21915
O          5.05503        2.00720       -0.17671
C          4.10202       -0.11189       -2.03030
H          1.51299       -0.62441       -1.41600
H          1.11885        1.57595        2.13810
C          3.59323        2.67177        2.31272
C          2.76530       -4.14103        1.36824
C          1.39141       -6.19155        1.59033
C          1.90562       -5.26182       -0.69822
C         -3.49523       -5.57352        2.13933
C         -4.35992       -3.25125        2.12870
C         -4.25694       -4.52427       -0.02424
C         -1.39027       -6.46152       -0.55157
H          3.63422       -4.79180        1.46357
H          3.06514       -3.29863        0.74701
H          2.51868       -3.76462        2.36064
H          0.61606       -6.83009        1.17478
H          2.31403       -6.77070        1.61971
H          1.11039       -5.94881        2.61456
H          2.81451       -5.86014       -0.75588
H          1.10085       -5.82680       -1.16238
H          2.05734       -4.35836       -1.28831
H         -3.00200       -6.37493        1.59508
H         -2.94982       -5.41650        3.06930
H         -4.49974       -5.91459        2.38850
H         -3.82221       -2.95438        3.02884
H         -4.57962       -2.35592        1.54919
H         -5.31573       -3.67607        2.43459
H         -3.72734       -5.25953       -0.62514
H         -5.27070       -4.88940        0.13815
H         -4.31788       -3.60436       -0.60525
H         -1.37356       -5.62326       -1.24935
H         -0.60641       -7.17077       -0.81670
H         -2.34984       -6.97365       -0.62055
C          4.96697        3.18757       -0.96577
C          3.66089       -1.55216       -2.37940
C          3.86156        0.78435       -3.25473
C          5.60384       -0.17353       -1.69875
C          3.27858        4.12885        1.94056
C          2.93269        2.36037        3.67527
C          5.11004        2.48414        2.49606
H          3.70429       -2.19371       -1.50002
H          2.64690       -1.58068       -2.77512
H          4.31228       -1.98264       -3.13956
H          4.17425        1.80790       -3.06258
H          4.41426        0.41991       -4.12016
H          2.80322        0.80506       -3.51416
H          6.16851       -0.61457       -2.51979
H          6.01171        0.81684       -1.51413
H          5.77492       -0.77599       -0.80724
H          3.73489        4.40188        0.99228
H          2.20336        4.27817        1.84566
H          3.64831        4.81494        2.70210
H          3.40902        2.92777        4.47451
H          1.87645        2.62581        3.68184
H          3.02288        1.30166        3.91696
H          5.34358        1.44344        2.71832
H          5.48488        3.09835        3.31442
H          5.65613        2.76379        1.59866
H          5.55024        3.06362       -1.87799
H          3.92864        3.39670       -1.22475
H          5.37971        4.02984       -0.41076
