75
-122.81758321
P          1.85132       -0.56189       -0.00611
C          3.19205       -1.25180       -0.98789
C          4.43157       -1.36337       -0.39974
C          5.48648       -1.90366       -1.11322
C          5.28936       -2.33553       -2.40966
C          4.04149       -2.23223       -2.99144
C          2.98929       -1.69160       -2.27569
H          2.01215       -1.60412       -2.72162
H          3.88699       -2.56975       -4.00313
H          6.11021       -2.75564       -2.96769
H          6.45871       -1.98869       -0.65630
H          4.56595       -1.03355        0.61882
C          1.69487       -1.59598        1.45186
C          1.79384       -1.05163        2.71157
C          1.75754       -1.87600        3.82099
C          1.62359       -3.24081        3.65896
C          1.52208       -3.78219        2.39262
C          1.56054       -2.95502        1.28434
H          1.49904       -3.36270        0.28739
H          1.41374       -4.84684        2.26655
H          1.59117       -3.88425        4.52296
H          1.83000       -1.45269        4.80925
H          1.89464        0.01573        2.82095
C          2.22426        1.13816        0.45033
C          3.38759        1.78480        0.10423
C          3.56166        3.12997        0.39896
C          2.51986        3.81983        1.01797
C          1.34275        3.18787        1.35262
C          1.19384        1.81835        1.08138
O          0.00586        1.13815        1.39424
C         -1.18453        1.81221        1.07516
C         -1.33862        3.18269        1.33815
C         -2.51359        3.81016        0.98840
C         -3.54874        3.11363        0.36578
C         -3.37232        1.76539        0.08721
C         -2.21179        1.12226        0.44907
P         -1.82819       -0.58763        0.03266
C         -1.70890       -1.57916        1.52951
C         -1.53301       -0.98651        2.75876
C         -1.53181       -1.76048        3.90408
C         -1.70281       -3.12727        3.80993
C         -1.87067       -3.72049        2.57444
C         -1.87581       -2.94179        1.43103
H         -2.02381       -3.38856        0.46051
H         -2.00057       -4.78759        2.50002
H         -1.69753       -3.73280        4.70148
H         -1.39014       -1.29754        4.86677
H         -1.38360        0.07856        2.81583
C         -3.14039       -1.32057       -0.95843
C         -4.41544       -1.34756       -0.44054
C         -5.44067       -1.92899       -1.16463
C         -5.17861       -2.48842       -2.39931
C         -3.89500       -2.47342       -2.90755
C         -2.87229       -1.89202       -2.18097
H         -1.86594       -1.87801       -2.56688
H         -3.68924       -2.91278       -3.86980
H         -5.97638       -2.94074       -2.96556
H         -6.44058       -1.94771       -0.76329
H         -4.60058       -0.92505        0.53477
Pd         0.00183       -0.04766       -1.37580
Cl        -1.60256        0.86762       -2.68855
Cl         1.47026        0.97846       -2.75508
H         -4.13712        1.22570       -0.44234
C         -4.79139        3.81485       -0.05293
H         -5.65218        3.14609       -0.01232
H         -4.69994        4.18442       -1.07502
H         -5.00159        4.66587        0.59616
H         -2.62404        4.86136        1.18819
S         -0.00350        4.06497        2.10446
H          2.62638        4.86992        1.22562
C          4.80745        3.83612       -0.00158
H          4.15723        1.24879       -0.42253
H          5.01691        4.67412        0.66446
H          5.66666        3.16481        0.02955
H          4.72080        4.22531       -1.01679
