75
-122.80675333
P          1.90973       -0.51602       -0.15262
C          3.32749       -1.17007       -1.05636
C          4.24084       -1.93795       -0.36888
C          5.34906       -2.44584       -1.02263
C          5.53882       -2.17790       -2.36355
C          4.62650       -1.40090       -3.04851
C          3.52276       -0.89546       -2.38945
H          2.81970       -0.26522       -2.90498
H          4.77684       -1.18346       -4.09326
H          6.40169       -2.57249       -2.87490
H          6.06232       -3.04890       -0.48518
H          4.08293       -2.13783        0.67889
C          1.61835       -1.62855        1.22375
C          1.94096       -1.24622        2.50544
C          1.81661       -2.15215        3.54279
C          1.37528       -3.43523        3.28571
C          1.05484       -3.81396        1.99695
C          1.18061       -2.90626        0.96057
H          0.95254       -3.19067       -0.05488
H          0.70730       -4.81423        1.79757
H          1.27392       -4.14089        4.09399
H          2.06259       -1.85589        4.54918
H          2.29160       -0.24305        2.68670
C          2.27362        1.15139        0.41253
C          3.44911        1.79552        0.10500
C          3.62618        3.13315        0.43169
C          2.58342        3.81114        1.06202
C          1.39570        3.18029        1.36032
C          1.24227        1.81807        1.05803
O          0.05320        1.13493        1.36196
C         -1.14362        1.80690        1.06025
C         -1.28994        3.17933        1.31570
C         -2.45844        3.81198        0.95423
C         -3.49647        3.11668        0.33492
C         -3.33536        1.76169        0.08149
C         -2.18314        1.11125        0.45763
P         -1.81427       -0.62424        0.12208
C         -1.76097       -1.51778        1.69028
C         -1.36269       -0.89379        2.85026
C         -1.40775       -1.57133        4.05389
C         -1.84770       -2.87917        4.08960
C         -2.23911       -3.50830        2.92475
C         -2.19739       -2.82329        1.72379
H         -2.51450       -3.29984        0.81018
H         -2.57998       -4.53022        2.95044
H         -1.87927       -3.41135        5.02628
H         -1.09134       -1.08137        4.96000
H         -0.99881        0.11791        2.80690
C         -3.08953       -1.43599       -0.85510
C         -4.40724       -1.33004       -0.47188
C         -5.38772       -1.99123       -1.18914
C         -5.03919       -2.76652       -2.27707
C         -3.71359       -2.89012       -2.64258
C         -2.73563       -2.22819       -1.92286
H         -1.69572       -2.32311       -2.19239
H         -3.44002       -3.50063       -3.48738
H         -5.80237       -3.28077       -2.83812
H         -6.42089       -1.90510       -0.89512
H         -4.66201       -0.75300        0.40285
Pd        -0.05985        0.04470       -1.34857
Cl        -1.73189        0.44331       -2.81279
Cl         1.31309        1.20583       -2.70853
H         -4.10535        1.22448       -0.44200
C         -4.73083        3.82353       -0.09906
H         -4.63694        4.16601       -1.13032
H         -4.92864        4.69331        0.52869
H         -5.60017        3.16732       -0.03992
H         -2.56243        4.86561        1.14439
S          0.04114        4.05441        2.09916
H          2.69830        4.85178        1.30910
C          4.90576        3.82537        0.12249
H          4.22545        1.26151       -0.41527
H          5.61146        3.72167        0.94765
H          5.37028        3.40990       -0.77276
H          4.74495        4.88994       -0.05233
