111
-148.55340044
P         -2.41950        2.12875       -0.58559
P         -0.04712        0.29557        0.45060
C         -1.92650        2.19734        1.15287
C         -0.88189        1.41460        1.59248
C         -2.44348        3.82653       -1.31938
C         -1.23552        4.06550       -2.19940
C         -2.57651        3.03942        2.03159
H         -3.38466        3.65805        1.67609
C         -2.18355        3.08446        3.35818
H         -2.69147        3.73956        4.04699
C         -1.14086        2.29212        3.79945
H         -0.83571        2.32620        4.83234
C         -0.48716        1.45449        2.91314
H          0.32720        0.82778        3.24137
Pd        -1.08446        0.56137       -1.61551
Cl        -2.00869        1.11207       -3.57848
Cl         0.38642       -0.97281       -2.34475
C         -3.79689        3.86640       -2.05175
C         -4.17801        1.62448       -0.87570
H         -1.25327        5.06551       -2.63888
H         -0.30614        3.95970       -1.63462
H         -1.20434        3.34627       -3.01920
H         -3.64216        3.55636       -3.09443
H         -4.17623        4.89835       -2.10264
H         -4.14323        0.87940       -1.68199
C         -4.83522        2.92277       -1.38039
C         -4.81072        1.03623        0.36685
H         -2.44831        4.52417       -0.47154
H         -5.30169        3.43762       -0.52935
H         -5.65927        2.69071       -2.07200
H         -4.81548        1.76041        1.18282
H         -5.84566        0.73758        0.18481
H         -4.26085        0.15835        0.71137
C         -1.21824       -4.02530        1.26638
C          0.06993       -3.74871        0.74051
C          0.41494       -2.42716        0.50948
C         -0.43384       -1.40663        0.84770
C         -1.63805       -1.66404        1.45048
C         -2.04223       -2.96198        1.71616
O         -1.70361       -5.35965        1.29854
C          1.06749       -4.85453        0.36293
H          1.34193       -2.17653        0.02409
H         -2.26887       -0.82881        1.70117
C         -3.37449       -3.19544        2.44543
C          4.36487        1.38105        0.12733
C          3.44102        1.83674       -0.84695
C          2.10757        1.49769       -0.69275
C          1.69896        0.66646        0.31745
C          2.60495        0.13223        1.19670
C          3.95298        0.44185        1.10743
O          5.68784        1.89745        0.14575
C          3.85449        2.69872       -2.05008
H          1.36380        1.88669       -1.36649
H          2.24011       -0.52496        1.96677
C          4.93984       -0.20699        2.09098
C          2.51926       -4.36512        0.56092
C          0.89328       -6.09765        1.25442
C          0.86954       -5.22765       -1.11412
C         -3.67357       -2.03140        3.41789
C         -4.51128       -3.28024        1.41555
C         -3.32712       -4.48233        3.28918
C         -2.39790       -5.74792        0.11942
H          3.22711       -5.17854        0.40322
H          2.77974       -3.57450       -0.14093
H          2.66160       -3.98965        1.57366
H          0.98557       -5.83087        2.30671
H         -0.08150       -6.55663        1.11176
H          1.64748       -6.85090        1.02795
H          1.02395       -4.35913       -1.75403
H          1.57234       -6.00228       -1.41955
H         -0.13763       -5.59572       -1.29549
H         -2.83189       -1.86131        4.08876
H         -3.88124       -1.10349        2.88763
H         -4.54876       -2.25272        4.02834
H         -4.56562       -2.36687        0.82402
H         -4.35988       -4.10953        0.72882
H         -5.47350       -3.42216        1.90691
H         -2.49731       -4.44849        3.99432
H         -4.24877       -4.61379        3.85554
H         -3.19746       -5.36223        2.66400
H         -2.45234       -4.91376       -0.58132
H         -1.88220       -6.58412       -0.35230
H         -3.40570       -6.07187        0.37888
C          5.83365        3.08307        0.91747
C          5.29216        2.37603       -2.49596
C          2.93424        2.41563       -3.26041
C          3.73544        4.18429       -1.67852
C          5.03309        0.65635        3.35801
C          4.46310       -1.62148        2.48779
C          6.33382       -0.37071        1.45746
H          5.39445        1.31493       -2.72084
H          5.56176        2.93988       -3.38861
H          6.01311        2.62320       -1.72075
H          1.92013        2.77392       -3.09062
H          3.30430        2.91732       -4.15414
H          2.88832        1.34735       -3.47043
H          4.00801        4.82020       -2.52041
H          2.71376        4.42823       -1.38811
H          4.38571        4.43505       -0.84373
H          5.72103        0.21745        4.08020
H          5.38399        1.65920        3.12559
H          4.05712        0.74883        3.83396
H          5.21257       -2.12590        3.09730
H          3.54399       -1.59181        3.07080
H          4.29050       -2.22908        1.60054
H          7.01074       -0.89682        2.13013
H          6.78217        0.59280        1.22886
H          6.26904       -0.93767        0.52936
H          6.21302        3.88627        0.28595
H          4.87499        3.37864        1.34559
H          6.55147        2.91187        1.71949
