58
-89.86607303
P          1.72144        0.20220        0.74010
C          3.03535        1.38041        0.41665
C          4.30634        0.93536        0.13366
C          5.31284        1.84870       -0.12337
C          5.03693        3.20161       -0.09545
C          3.75949        3.64301        0.18861
C          2.75482        2.72714        0.44612
H          1.75014        3.05603        0.66123
H          4.50425       -0.12413        0.10958
C          2.21764       -1.45446        0.25373
C          2.37516       -1.70697       -1.09009
C          2.72411       -2.97341       -1.52021
C          2.91499       -3.98149       -0.59639
C          2.76120       -3.72428        0.75183
C          2.41191       -2.45571        1.17853
H          2.28724       -2.24844        2.22839
H          2.21195       -0.90655       -1.79430
C          1.33532        0.32721        2.53480
C          0.05104       -0.35725        2.97652
C         -1.21454        0.36718        2.53587
P         -1.70509       -0.04266        0.81565
C         -1.87302       -1.82888        0.72033
C         -2.96607       -2.43849        1.29329
C         -3.08403       -3.81669        1.25468
C         -2.10023       -4.57552        0.65151
C         -0.99883       -3.96038        0.09093
C         -0.88732       -2.58313        0.12896
H         -0.02189       -2.09556       -0.28378
H         -3.72052       -1.83404        1.77173
C         -3.26341        0.76326        0.42171
C         -4.19475        0.10632       -0.34997
C         -5.38146        0.73401       -0.68324
C         -5.62445        2.02092       -0.24623
C         -4.68261        2.68183        0.51710
C         -3.49642        2.05123        0.84808
H         -2.74666        2.56528        1.42769
H         -3.98399       -0.89096       -0.70140
Pd        -0.06221        0.68434       -0.65391
Cl         1.44734        1.26075       -2.22746
Cl        -1.73236        1.31670       -2.02634
H         -2.07020        0.08828        3.15602
H         -1.09703        1.44851        2.62065
H          0.03083       -1.39013        2.60406
H          0.05334       -0.44625        4.07430
H          2.20550       -0.07690        3.05751
H          1.29863        1.39125        2.77629
H          6.30877        1.50409       -0.34837
H          3.54321        4.69855        0.20557
H          2.84351       -3.17184       -2.57258
H          2.91006       -4.51207        1.47193
H         -3.94103       -4.29646        1.69812
H         -0.22235       -4.54975       -0.36819
H         -6.11098        0.22113       -1.28823
H         -4.86758        3.69003        0.84972
H          5.81945        3.91439       -0.29874
H          3.18536       -4.97076       -0.92797
H         -2.18967       -5.64924        0.62303
H         -6.54726        2.51282       -0.50736
