58
-89.86340750
P          1.75282       -0.19096        0.87016
C          1.86458        1.58997        0.64258
C          0.79195        2.35835        1.03275
C          0.81015        3.72584        0.83096
C          1.90666        4.31564        0.23445
C          2.97702        3.54043       -0.16742
C          2.95223        2.17205        0.03282
H          3.76850        1.55364       -0.30195
H         -0.07484        1.88026        1.45363
C          3.29711       -1.03239        0.49760
C          3.30464       -2.14830       -0.30761
C          4.49569       -2.80155       -0.56808
C          5.67090       -2.33825       -0.01050
C          5.65729       -1.22751        0.80977
C          4.46435       -0.57570        1.06748
H          4.43648        0.28510        1.71707
H          2.38010       -2.49972       -0.73710
C          1.31317       -0.60373        2.61476
C         -0.03344       -1.29082        2.77251
C         -1.21934       -0.36377        2.54657
P         -1.65975       -0.13949        0.76597
C         -2.90961       -1.36976        0.38088
C         -4.21958       -0.97819        0.22501
C         -5.18764       -1.91903       -0.07678
C         -4.83442       -3.24623       -0.22095
C         -3.51813       -3.63398       -0.06506
C         -2.55225       -2.69075        0.23726
H         -1.51945       -2.97888        0.35115
H         -4.47807        0.06278        0.33470
C         -2.30089        1.51719        0.46791
C         -2.78428        2.28317        1.50544
C         -3.24490        3.56389        1.25800
C         -3.22451        4.06823       -0.02729
C         -2.75320        3.29249       -1.06729
C         -2.29480        2.01337       -0.81545
H         -1.94444        1.38627       -1.61813
H         -2.80790        1.87938        2.50436
Pd         0.09414       -0.50845       -0.72174
Cl         1.72698       -0.39671       -2.26270
Cl        -1.50981       -0.73322       -2.28559
H         -2.12529       -0.75167        3.02001
H         -1.02860        0.61161        2.99635
H         -0.09558       -2.14564        2.08608
H         -0.09833       -1.72475        3.78260
H          2.12330       -1.23688        2.98629
H          1.34997        0.32009        3.19553
H         -0.03736        4.32395        1.12268
H          3.82742        3.99914       -0.64461
H          4.50520       -3.66915       -1.20720
H          6.57325       -0.86928        1.25024
H         -6.21398       -1.61537       -0.20201
H         -3.24192       -4.66896       -0.18248
H         -3.61988        4.16700        2.06857
H         -2.74431        3.68036       -2.07261
H          1.92268        5.38108        0.07230
H          6.59973       -2.84583       -0.21393
H         -5.58698       -3.98035       -0.45853
H         -3.58250        5.06648       -0.21979
