171
-217.84879300
P         -1.61964        0.37853       -0.24185
P          1.61799       -0.40646       -0.25246
C         -0.87197        1.33748       -1.56233
C          0.86013       -1.37392       -1.56206
C         -0.10130        0.71802       -2.53966
C          0.51301        1.51747       -3.52254
C          0.31629        2.88853       -3.50085
C         -0.46253        3.48095       -2.52911
C         -1.05119        2.69893       -1.55516
C          1.03648       -2.73574       -1.54811
C          0.43524       -3.52333       -2.50979
C         -0.35206       -2.93600       -3.47763
C         -0.54555       -1.56471       -3.50693
C          0.08034       -0.75985       -2.53582
Cl         1.62426        0.33819        2.89959
Cl        -1.58215       -0.39460        2.93646
C         -1.40203       -0.97003       -4.56926
C          1.36017        0.91729       -4.58921
H         -0.61241        4.54814       -2.52828
H         -1.65456        3.15186       -0.78493
H          1.64794       -3.18522       -0.78247
H          0.58083       -4.59112       -2.50189
H          0.78628        3.49470       -4.25690
H         -0.83128       -3.54630       -4.22451
C         -3.91138       -3.23771       -1.69729
C         -2.94067       -3.40992       -0.71892
C         -2.24587       -2.28625       -0.28877
C         -2.49833       -1.05921       -0.84921
C         -3.44394       -0.90957       -1.83472
C         -4.18078       -2.00350       -2.27448
H         -4.49103       -4.08863       -2.00393
H         -1.50957       -2.35457        0.49315
H         -3.60727        0.07122       -2.24815
C         -4.45461        2.94727        2.20506
C         -4.98314        2.00494        1.33316
C         -4.09320        1.23405        0.59682
C         -2.73769        1.41736        0.71921
C         -2.23397        2.36080        1.58129
C         -3.08709        3.13377        2.35925
H         -5.12844        3.54844        2.78740
H         -4.45376        0.47414       -0.07215
H         -1.16670        2.47437        1.65919
C          4.50234       -2.88408        2.22789
C          3.14289       -3.14983        2.32888
C          2.27432       -2.40546        1.53986
C          2.75565       -1.42584        0.70574
C          4.10304       -1.17220        0.62777
C          5.00845       -1.90496        1.38374
H          5.18624       -3.44496        2.83809
H          1.21125       -2.56509        1.59170
H          4.44372       -0.38232       -0.01667
C          3.86808        3.22729       -1.72987
C          2.90247        3.39368       -0.74555
C          2.21767        2.26569       -0.31046
C          2.47704        1.03941       -0.86961
C          3.42063        0.89465       -1.85777
C          4.14567        1.99371       -2.30440
H          4.43725        4.08276       -2.04353
H          1.48392        2.32995        0.47419
H          3.59315       -0.08677       -2.26598
Pd         0.00067       -0.02220        1.39127
C         -2.46622       -5.82343       -1.24094
C         -2.70043       -4.79916       -0.11397
C         -3.93349       -5.20680        0.71091
C         -1.46491       -4.80451        0.80526
H         -1.62811       -5.52094       -1.86755
H         -2.24264       -6.80839       -0.83143
H         -3.34272       -5.92310       -1.87961
H         -3.79325       -6.18762        1.16490
H         -4.11695       -4.48740        1.50881
H         -4.82625       -5.24926        0.08771
H         -1.27384       -5.80576        1.19118
H         -0.57691       -4.48072        0.26279
H         -1.60923       -4.14494        1.66065
C         -6.65754       -2.13354       -2.59781
C         -5.31416       -1.87253       -3.30277
C         -5.12241       -2.90259       -4.43295
C         -5.35258       -0.46454       -3.92848
H         -6.81335       -1.42100       -1.78882
H         -7.48985       -2.03997       -3.29516
H         -6.68884       -3.13522       -2.17022
H         -4.16054       -2.76823       -4.92505
H         -5.16410       -3.92301       -4.05464
H         -5.90187       -2.79964       -5.18776
H         -4.40892       -0.22627       -4.41801
H         -6.14106       -0.39590       -4.67782
H         -5.55138        0.29652       -3.17444
C         -7.06800        1.41637        2.59392
C         -6.50418        1.82939        1.22215
C         -6.87606        0.74282        0.19428
C         -7.13959        3.15905        0.77611
H         -8.14574        1.26250        2.54282
H         -6.60952        0.48783        2.93358
H         -6.87525        2.17929        3.34723
H         -7.95788        0.63204        0.12149
H         -6.50316        0.99899       -0.79713
H         -6.46428       -0.22473        0.48092
H         -6.73240        3.47681       -0.18362
H         -8.21944        3.05840        0.66808
H         -6.94978        3.95159        1.49896
C         -2.97842        5.56823        2.93957
C         -2.56490        4.15348        3.38095
C         -1.02994        4.10074        3.49846
C         -3.16149        3.84159        4.76667
H         -2.61329        6.31843        3.64077
H         -2.57055        5.79850        1.95537
H         -4.06241        5.66184        2.88252
H         -0.69206        3.10484        3.78510
H         -0.56083        4.36735        2.55348
H         -0.67315        4.80260        4.25202
H         -2.77483        4.52690        5.52074
H         -4.24694        3.93088        4.76356
H         -2.90931        2.82623        5.07205
C          3.28224       -5.56219        3.00932
C          2.64451       -4.19866        3.33273
C          1.11320       -4.35216        3.27865
C          3.03870       -3.76023        4.75500
H          2.92607       -6.33130        3.69449
H          3.03260       -5.87219        1.99468
H          4.36782       -5.52227        3.08974
H          0.61404       -3.41361        3.51936
H          0.79436       -4.67261        2.28824
H          0.77203       -5.10015        3.99413
H          2.61115       -2.78488        4.98697
H          2.67939       -4.47269        5.49729
H          4.12027       -3.68460        4.86052
C          6.86887       -0.54708        0.30343
C          6.51952       -1.63929        1.33336
C          7.25351       -2.93341        0.93624
C          6.99682       -1.17393        2.72089
H          6.39655        0.40081        0.56090
H          7.94512       -0.37891        0.26678
H          6.54496       -0.83591       -0.69625
H          6.90672       -3.28986       -0.03356
H          8.32861       -2.76713        0.86997
H          7.08405       -3.72571        1.66432
H          8.06499       -0.95771        2.71435
H          6.47021       -0.26932        3.02445
H          6.81473       -1.93611        3.47766
C          3.90490        5.21117        0.65184
C          2.65778        4.78246       -0.14108
C          1.44630        4.77500        0.80944
C          2.38306        5.79770       -1.26670
H          3.76122        6.19128        1.10627
H          4.11872        4.49732        1.44717
H          4.78145        5.26521        0.00694
H          1.62249        4.11613        1.65935
H          1.25458        5.77375        1.20149
H          0.54701        4.44223        0.29143
H          2.16049        6.78273       -0.85683
H          3.24117        5.90180       -1.92924
H          1.53183        5.48331       -1.86903
C          5.05801        2.88560       -4.47783
C          5.27437        1.87046       -3.33872
C          5.33181        0.45665       -3.94953
C          6.61822        2.16083       -2.64608
H          4.09619        2.72921       -4.96337
H          5.08297        3.91021       -4.10945
H          5.83516        2.78936       -5.23590
H          5.54661       -0.29277       -3.18814
H          4.38945        0.19819       -4.43132
H          6.11725        0.39237       -4.70243
H          6.63663        3.16759       -2.22987
H          6.79112        1.45997       -1.83041
H          7.44706        2.07277       -3.34826
H         -0.86570       -0.91545       -5.51755
H          2.25561        1.51578       -4.75401
H         -1.72601        0.03726       -4.30426
H         -2.29639       -1.57219       -4.72678
H          0.81728        0.86262       -5.53376
H          1.68244       -0.09054       -4.32418
