59
-75.79906065
Cl         1.69037        0.36184        2.38385
P          1.61180       -0.15744       -0.88722
P         -1.55513       -0.13925       -0.75949
C          0.58901        0.11440       -2.40238
H          0.35504        1.17872       -2.48259
H          1.17844       -0.15733       -3.28392
C         -0.66697       -0.69957       -2.27649
H         -0.43460       -1.76289       -2.17616
H         -1.33089       -0.58272       -3.13878
C          2.71212       -1.61985       -1.20987
H          2.57146       -1.82600       -2.27959
C          2.90883        1.14175       -0.63159
H          2.98786        1.27647        0.45411
C         -3.04004       -1.15784       -0.32696
H         -3.05881       -1.18963        0.77006
C         -2.41401        1.45269       -1.14123
H         -1.86020        1.94804       -1.94812
C          4.13221       -1.06980       -0.98374
H          4.46368       -1.31757        0.03170
H          4.84752       -1.57071       -1.65343
C          4.18296        0.47059       -1.17232
H          4.28203        0.70813       -2.24056
H          5.07540        0.89819       -0.69020
C         -4.23489       -0.33472       -0.86535
H         -4.84298       -0.96921       -1.52538
H         -4.90259       -0.06408       -0.03441
C         -3.79159        0.95290       -1.62033
H         -4.54330        1.74681       -1.50360
H         -3.74832        0.74544       -2.70045
C          2.34878       -2.86482       -0.40004
H          2.95378       -3.71003       -0.75683
H          1.31114       -3.13885       -0.63138
C          2.56822        2.47257       -1.29116
H          3.44829        3.12927       -1.24744
H          2.38938        2.30460       -2.36095
C         -2.94484       -2.57580       -0.87463
H         -3.91896       -3.07316       -0.76655
H         -2.76402       -2.52648       -1.95631
C         -2.46774        2.34818        0.09205
H         -3.08259        1.85522        0.85695
H         -1.46497        2.41280        0.53566
C          2.51543       -2.72800        1.10636
H          3.56054       -2.60282        1.39228
H          2.14381       -3.60709        1.63817
H          1.97405       -1.86562        1.49185
C          1.37387        3.16269       -0.65028
H          1.55750        3.36897        0.40586
H          0.48180        2.53832       -0.70067
H          1.13722        4.11217       -1.13571
C         -1.86542       -3.39626       -0.18436
H         -1.76238       -4.39266       -0.61995
H         -2.08460       -3.52188        0.87775
H         -0.89445       -2.90475       -0.24809
C         -2.99555        3.74603       -0.19631
H         -2.38240        4.25066       -0.94543
H         -4.01624        3.71906       -0.58074
H         -3.00136        4.37236        0.69868
Cl        -1.55725        0.26692        2.35754
Pd         0.09411       -0.05505        0.86557
