105
-153.06627038
Cl        -0.11045        1.82456        3.11263
Pd        -0.46226        1.26338        0.95935
P         -1.14815        0.49922       -1.16141
N         -0.80959       -1.03935       -1.94879
C          0.15453       -1.99441       -1.62320
C          0.32145       -2.47970       -0.30130
C          1.30800       -3.45392       -0.04409
C          1.45669       -3.99073        1.35976
C          2.30227       -5.26893        1.46992
C          3.56377       -5.16621        0.60811
C          3.19396       -4.95821       -0.86789
C          2.10808       -3.93415       -1.08488
C          1.89303       -3.47487       -2.37819
C          0.93280       -2.53515       -2.64589
H          0.78645       -2.18104       -3.65139
H          2.50206       -3.86305       -3.17706
H          4.08010       -4.66086       -1.44330
H          4.17200       -4.32106        0.95428
H          2.56240       -5.47692        2.51743
H          1.90149       -3.20584        1.98205
C         -0.66454       -2.13966        0.75258
C         -0.22559       -1.56156        1.97487
C         -1.14657       -1.42866        3.01819
C         -2.45018       -1.82201        2.86434
C         -2.90118       -2.37886        1.67399
C         -4.34234       -2.82445        1.60227
C         -4.81924       -3.20371        0.19112
C         -3.74839       -4.01307       -0.54464
C         -2.44990       -3.20310       -0.66997
C         -2.00703       -2.54354        0.61372
H         -1.64086       -3.84551       -1.03945
H         -4.10930       -4.33187       -1.53279
H         -5.03784       -2.29293       -0.37989
H         -4.97757       -2.03233        2.01808
H         -3.14506       -1.70271        3.67839
H         -0.82302       -0.97944        3.94073
N          1.07400       -1.06143        2.14446
P          1.61557        0.17591        1.01049
C          2.63065       -0.35187       -0.35638
C          2.39862        0.19590       -1.59313
C          3.21497       -0.14382       -2.65612
C          4.26961       -1.02988       -2.47911
C          4.50602       -1.54525       -1.21101
C          3.68733       -1.20452       -0.14914
H          3.86545       -1.59704        0.83944
H          5.33354       -2.21723       -1.06069
C          5.15193       -1.39478       -3.62122
H          3.03342        0.27467       -3.63115
H          1.57425        0.87664       -1.72022
C          2.51431        1.49997        1.82535
C          3.22812        1.25142        2.97287
C          3.91854        2.28068        3.58707
C          3.90596        3.56060        3.04879
C          3.18051        3.78950        1.88740
C          2.49166        2.75927        1.27347
H          1.93124        2.93344        0.36787
H          3.15479        4.78093        1.46847
C          4.62161        4.67645        3.72718
H          4.47019        2.09562        4.49292
H          3.24832        0.25483        3.38302
H          1.24375       -0.64544        3.05099
H         -1.09835       -0.95296       -2.91505
C         -0.60706        1.83819       -2.23668
C         -0.79457        3.14643       -1.86010
C         -0.35636        4.17341       -2.67359
C          0.28024        3.89811       -3.87565
C          0.44795        2.57254       -4.25144
C          0.00584        1.54871       -3.43388
H          0.15689        0.52170       -3.72045
H          0.92976        2.34688       -5.18748
C          0.73606        5.00315       -4.76370
H         -0.50714        5.19789       -2.37881
H         -1.29060        3.35883       -0.92843
C         -2.94073        0.57453       -1.08679
C         -3.62954        0.89720       -2.23181
C         -5.01212        0.94661       -2.21263
C         -5.71204        0.68251       -1.04322
C         -4.99829        0.34994        0.09940
C         -3.61750        0.28879        0.07344
H         -3.06044        0.03277        0.96004
H         -5.53134        0.14150        1.01106
C         -7.20054        0.71212       -1.02352
H         -5.55615        1.19373       -3.10819
H         -3.08263        1.10965       -3.13709
Cl        -2.23312        2.66325        0.91504
H          2.86732       -5.90971       -1.30424
H          1.70646       -6.12875        1.13876
H          4.19648       -6.05635        0.73327
H          0.45731       -4.16565        1.77777
H         -3.54757       -4.93865        0.00932
H         -2.57992       -2.42445       -1.43007
H         -4.47116       -3.68135        2.27435
H         -5.76735       -3.75824        0.23333
H          4.60469       -1.36857       -4.56463
H          5.99164       -0.70289       -3.69898
H          5.55433       -2.40168       -3.50097
H          4.97187        5.41584        3.00559
H          3.96473        5.18249        4.43592
H          5.49127        4.31158        4.27544
H         -0.05770        5.30074       -5.45021
H          1.02575        5.88025       -4.18330
H          1.59935        4.70032       -5.35795
H         -7.57439        1.02130       -0.04644
H         -7.59067        1.41243       -1.76336
H         -7.61036       -0.27450       -1.24416
