58
-89.86552875
P          1.48686        0.27627        0.82111
C          1.51553        2.01238        0.36492
C          1.43508        3.00883        1.31095
C          1.46613        4.33355        0.91396
C          1.58355        4.65001       -0.42541
C          1.67840        3.64666       -1.36931
C          1.64846        2.32393       -0.96868
H          1.73834        1.52281       -1.68538
H          1.34850        2.75070        2.35373
C          3.14277       -0.41520        0.72207
C          4.22207        0.43529        0.80370
C          5.50689       -0.07275        0.73345
C          5.70093       -1.43146        0.58227
C          4.61544       -2.28117        0.50154
C          3.33205       -1.77017        0.57328
H          2.47825       -2.42359        0.49618
H          4.05404        1.49442        0.91765
C          0.86044       -0.01563        2.52488
C          0.21006       -1.38845        2.62965
C         -1.26441       -1.41275        2.25264
P         -1.70813       -0.74326        0.58739
C         -3.37716       -1.34141        0.25833
C         -3.65499       -2.26186       -0.72541
C         -4.94808       -2.71328       -0.90868
C         -5.96321       -2.23530       -0.10443
C         -5.68623       -1.30711        0.87944
C         -4.38859       -0.86122        1.06063
H         -4.15864       -0.13619        1.82568
H         -2.86143       -2.60713       -1.36397
C         -1.80875        1.05600        0.55768
C         -1.80197        1.67366       -0.67244
C         -1.87046        3.05238       -0.75515
C         -1.95609        3.80477        0.39864
C         -1.98190        3.18125        1.63007
C         -1.91309        1.80260        1.70863
H         -1.96047        1.31225        2.66638
H         -1.73988        1.07041       -1.56481
Pd         0.21269       -0.83151       -0.76879
Cl         1.97725       -0.80218       -2.16153
Cl        -1.06870       -1.87849       -2.27648
H         -1.64932       -2.43556        2.27338
H         -1.85514       -0.85287        2.97931
H          0.76374       -2.09323        1.99458
H          0.32462       -1.77862        3.65325
H          1.72777        0.07771        3.18360
H          0.16467        0.77509        2.80315
H          1.39558        5.11754        1.64993
H          1.77678        3.89169       -2.41398
H          6.35330        0.59144        0.79406
H          4.76665       -3.34093        0.37770
H         -5.16339       -3.43229       -1.68204
H         -6.47786       -0.93062        1.50621
H         -1.85207        3.53649       -1.71765
H         -2.05606        3.76866        2.53053
H          1.60434        5.68240       -0.73425
H          6.70106       -1.82907        0.52420
H         -6.97297       -2.58436       -0.24690
H         -2.00374        4.87980        0.33797
