59
-75.79820613
Cl         1.42690        0.58151        2.37781
P          1.56145        0.03722       -0.73502
P         -1.70680       -0.11994       -0.83292
C          0.59206        0.53428       -2.23053
H          0.35015        1.59527       -2.14213
H          1.23788        0.41976       -3.10608
C         -0.66394       -0.28679       -2.35037
H         -0.41961       -1.34310       -2.47860
H         -1.26837        0.00712       -3.21378
C          2.24805       -1.66009       -1.00175
H          1.63670       -2.11088       -1.79444
C          3.15655        0.97518       -0.55274
H          3.21243        1.25129        0.50804
C         -2.90760       -1.51515       -0.61036
H         -2.96376       -1.68524        0.47213
C         -2.90971        1.28619       -1.01182
H         -2.77564        1.66946       -2.03058
C          3.66755       -1.36597       -1.51927
H          4.32380       -2.22431       -1.31275
H          3.64667       -1.26951       -2.61544
C          4.24920       -0.06339       -0.90268
H          4.97021        0.38997       -1.59759
H          4.83847       -0.30288       -0.00641
C         -4.22593       -0.91336       -1.12272
H         -4.30728       -1.10605       -2.20165
H         -5.08497       -1.42787       -0.66504
C         -4.28807        0.61294       -0.86075
H         -4.65435        0.78808        0.16015
H         -5.02442        1.09467       -1.52159
C          2.19609       -2.52977        0.25753
H          2.42642       -3.56959       -0.01439
H          1.16510       -2.55144        0.63360
C          3.23509        2.23933       -1.40559
H          4.28111        2.57340       -1.45190
H          2.96933        1.98842       -2.44026
C         -2.51041       -2.80566       -1.31799
H         -3.35614       -3.50650       -1.28370
H         -2.35730       -2.59512       -2.38419
C         -2.69068        2.40377        0.00379
H         -3.55186        3.08582       -0.02777
H         -2.70357        1.97029        1.01229
C          3.12477       -2.08479        1.37631
H          2.98329       -2.67595        2.28405
H          2.95517       -1.04089        1.63969
H          4.17321       -2.18185        1.09085
C          2.36835        3.37363       -0.88484
H          2.64912        3.65004        0.13330
H          1.31849        3.08986       -0.85853
H          2.44879        4.27023       -1.50377
C         -1.27630       -3.45568       -0.71808
H         -0.42047       -2.78446       -0.76941
H         -1.00244       -4.37817       -1.23513
H         -1.42961       -3.69974        0.33491
C         -1.40873        3.18575       -0.21683
H         -0.53822        2.54050       -0.11210
H         -1.37510        3.61947       -1.21808
H         -1.29593        4.00128        0.50123
Cl        -1.75481        0.02309        2.39625
Pd        -0.13612        0.07945        0.84348
