111
-148.54953243
P         -2.58478        1.98872       -0.48208
P          0.06957        0.47333        0.43578
C         -1.90014        2.26648        1.17447
C         -0.73716        1.63205        1.55524
C         -3.03048        3.60145       -1.27608
C         -2.19367        3.86329       -2.50914
C         -2.52972        3.12969        2.04818
H         -3.42920        3.63699        1.73977
C         -1.99967        3.34330        3.30893
H         -2.49250        4.01557        3.99216
C         -0.83985        2.69743        3.69152
H         -0.42777        2.86203        4.67351
C         -0.20672        1.83846        2.81112
H          0.69793        1.32433        3.09506
Pd        -1.07627        0.60495       -1.56753
Cl        -2.46228        0.77900       -3.32619
Cl         0.36095       -0.84415       -2.49391
C         -4.54396        3.46381       -1.55163
C         -4.22617        1.13572       -0.52933
H         -2.42455        4.83533       -2.95135
H         -1.12608        3.84159       -2.27718
H         -2.38060        3.10522       -3.27054
H         -4.78510        3.94577       -2.51001
H         -5.11467        4.01919       -0.79305
H         -4.04241        0.11827       -0.90111
C         -5.00712        1.97902       -1.55779
C         -4.87458        1.09708        0.83760
H         -2.83830        4.37583       -0.52084
H         -6.08530        1.90684       -1.35213
H         -4.86684        1.55914       -2.56484
H         -4.22344        0.62186        1.57311
H         -5.08711        2.10704        1.19176
H         -5.82071        0.55095        0.81787
C         -1.21184       -3.81075        1.25905
C          0.04774       -3.56683        0.65375
C          0.42565       -2.25255        0.43458
C         -0.36083       -1.21231        0.85412
C         -1.52996       -1.44150        1.53194
C         -1.95922       -2.73157        1.79758
O         -1.75101       -5.12439        1.27211
C          0.96950       -4.69560        0.16820
H          1.32502       -2.02129       -0.10946
H         -2.11661       -0.59242        1.83638
C         -3.24121       -2.93488        2.61959
C          4.54581        1.21627        0.04239
C          3.66103        1.64285       -0.98039
C          2.30439        1.42641       -0.80553
C          1.83162        0.73936        0.28185
C          2.69232        0.22551        1.21696
C          4.06038        0.41827        1.10974
O          5.90847        1.61622        0.01523
C          4.14572        2.33815       -2.26242
H          1.59310        1.79199       -1.52615
H          2.27670       -0.33168        2.03868
C          4.99305       -0.20875        2.15823
C          0.65478       -5.00197       -1.30397
C          2.45098       -4.27244        0.28273
C          0.80244       -5.96519        1.02277
C         -3.21816       -4.27674        3.37424
C         -3.37812       -1.82641        3.68810
C         -4.45723       -2.87732        1.68260
C         -2.55151       -5.42421        0.13513
H          0.79883       -4.11509       -1.92072
H          1.30298       -5.78961       -1.68702
H         -0.37662       -5.32494       -1.42623
H          3.11113       -5.10521        0.04138
H          2.69635       -3.46161       -0.40125
H          2.67894       -3.94858        1.29744
H          1.50738       -6.73822        0.71782
H          0.97532       -5.74449        2.07556
H         -0.19842       -6.37866        0.92914
H         -4.09709       -4.38412        4.00944
H         -3.20500       -5.11910        2.68746
H         -2.33280       -4.34690        4.00523
H         -2.47951       -1.76872        4.30175
H         -3.54751       -0.84889        3.24132
H         -4.22204       -2.02698        4.34777
H         -5.38632       -2.99314        2.24004
H         -4.49500       -1.92381        1.15703
H         -4.41373       -3.66484        0.93354
H         -2.59417       -4.56526       -0.53589
H         -2.12947       -6.27753       -0.39553
H         -3.56033       -5.68489        0.45479
C          6.16110        2.85650        0.66340
C          5.54812        1.84616       -2.66400
C          3.20150        2.01593       -3.44395
C          4.15960        3.85851       -2.04457
C          4.38981       -1.51821        2.71324
C          6.35640       -0.57293        1.54208
C          5.18389        0.77587        3.32166
H          5.86350        2.28906       -3.60837
H          6.29043        2.10777       -1.91410
H          5.55595        0.76267       -2.77786
H          3.06079        0.94007       -3.54506
H          2.22359        2.47793       -3.31764
H          3.61240        2.38978       -4.38140
H          4.48854        4.37870       -2.94382
H          3.16359        4.22040       -1.79042
H          4.82872        4.13442       -1.23302
H          3.49076       -1.33382        3.29925
H          4.13901       -2.19926        1.90125
H          5.09945       -2.02477        3.36704
H          6.88817        0.31251        1.20293
H          6.99160       -1.08029        2.26775
H          6.22589       -1.23305        0.68520
H          5.62696        1.70823        2.97990
H          5.83488        0.35445        4.08723
H          4.22700        1.01417        3.78555
H          6.58994        3.56115       -0.04886
H          5.23701        3.26809        1.07119
H          6.87945        2.70780        1.46946
