87
-129.18390591
P         -1.48400       -0.41514       -0.28573
P          1.77381        0.40689        0.12781
C         -1.15802        0.79656       -1.57339
C          1.65067       -0.75468       -1.25364
C         -0.08732        0.61369       -2.44017
C          0.15067        1.57955       -3.43826
C         -0.69343        2.67362       -3.53339
C         -1.75150        2.83490       -2.66401
C         -1.98051        1.89092       -1.68266
C          2.41811       -1.89003       -1.14340
C          2.33351       -2.88974       -2.09217
C          1.46262       -2.75155       -3.15029
C          0.67153       -1.62343       -3.27987
C          0.76987       -0.59571       -2.32192
Cl         1.16002        0.38229        3.27867
Cl        -1.39105       -1.65914        2.62037
H         -2.39494        3.69542       -2.74684
H         -2.80775        2.00620       -1.00219
H          3.08527       -1.99941       -0.30410
H          2.93831       -3.77688       -1.99931
H         -0.50835        3.40974       -4.29720
H          1.38449       -3.53165       -3.88854
C         -2.12973       -4.51722       -2.12164
C         -2.74508       -3.40892       -2.68723
C         -2.54727       -2.16632       -2.09517
C         -1.74719       -2.04467       -0.98306
C         -1.14486       -3.14802       -0.42639
C         -1.33424       -4.39088       -0.99981
H         -2.28287       -5.48502       -2.56797
C         -3.62066       -3.55171       -3.88208
H         -3.01267       -1.28829       -2.51246
H         -0.54074       -3.03434        0.45891
H         -0.86420       -5.25970       -0.56909
C         -5.11685        0.89683        2.13015
C         -5.16765       -0.27322        1.39811
C         -4.06856       -0.67504        0.66271
C         -2.93103        0.09710        0.66097
C         -2.87754        1.26152        1.39163
C         -3.96877        1.67687        2.14393
H         -5.97283        1.21287        2.70171
H         -6.06199       -0.87451        1.40173
H         -4.09074       -1.58986        0.09342
H         -1.98224        1.85899        1.37687
C         -3.90860        2.94771        2.91605
C          5.73887       -0.10253        2.30576
C          5.55105        0.96776        1.45370
C          4.34520        1.12177        0.79564
C          3.33704        0.20770        0.99560
C          3.52306       -0.86025        1.84294
C          4.73060       -1.03476        2.50799
H          6.67371       -0.21947        2.82703
H          6.34148        1.68501        1.30465
H          4.18247        1.95571        0.13253
H          2.71818       -1.55756        2.00758
C          4.91183       -2.16980        3.45322
C          0.88440        4.76618       -0.79255
C          1.78394        4.07531       -1.58114
C          2.07388        2.75274       -1.30160
C          1.46050        2.13540       -0.23744
C          0.59198        2.83148        0.57163
C          0.28294        4.15843        0.30105
H          0.64310        5.79034       -1.02075
H          2.24900        4.56166       -2.42287
H          2.75798        2.19209       -1.91850
H          0.17255        2.34898        1.43762
C         -0.70664        4.88868        1.13872
Pd         0.04225       -0.36094        1.48506
C          1.28958        1.45215       -4.38933
C         -0.26377       -1.52623       -4.43533
H          1.83047        2.39554       -4.47665
H          2.00190        0.69423       -4.06149
H          0.93649        1.17568       -5.38355
H          0.27285       -1.26995       -5.34954
H         -0.77442       -2.47558       -4.60222
H         -1.02911       -0.76761       -4.26879
H         -3.22490       -4.29897       -4.57147
H         -4.62573       -3.85995       -3.59078
H         -3.70269       -2.60976       -4.42646
H         -4.63688        2.95215        3.72816
H         -2.92072        3.08973        3.35686
H         -4.11647        3.80312        2.27169
H          4.39769       -3.06311        3.09555
H          5.96674       -2.42002        3.57408
H          4.50903       -1.92100        4.43599
H         -0.68049        4.53870        2.17171
H         -0.50309        5.96034        1.14638
H         -1.71838        4.73972        0.75852
