100
-131.97532200
C         -1.58169        3.88625       -1.35129
C         -2.30876        2.61348       -1.42681
C         -0.18967        3.60461       -1.39359
C          0.00757        2.13367       -1.51855
C          1.17968        1.58611       -2.26295
C         -1.37095        1.53925       -1.57311
C         -1.77316        0.15254       -2.03418
C         -0.85337       -0.46363       -3.06929
Cl         1.08714       -0.46666        2.71791
Cl        -1.75503       -1.62411        2.28090
C          3.25977        0.62317       -3.87665
C          2.52212        1.71623       -4.28703
C          2.97732        0.02141       -2.65882
C          1.50796        2.19339       -3.49509
C          1.95254        0.47593       -1.86280
H         -3.39294        2.51311       -1.50684
H          0.60833        4.34943       -1.43744
H          0.08629       -0.77229       -2.61335
H         -1.29606       -1.34619       -3.53642
H         -0.62159        0.24708       -3.86594
H          4.06297        0.25009       -4.49079
H          2.74305        2.19302       -5.22830
H          3.59154       -0.79899       -2.32549
H          0.92434        3.03695       -3.82139
H         -2.03421        4.88058       -1.31664
P          1.84333       -0.27340       -0.22333
H         -2.76926        0.25345       -2.47964
P         -2.02108       -0.97556       -0.58690
H         -3.04874       -2.84240       -1.74862
C         -1.94216       -3.80563       -0.15317
C         -2.10960       -2.71076       -1.21185
C         -3.18285       -3.96171        0.72715
H         -3.63374        0.64190        0.15500
C         -4.89752       -1.02428       -0.37214
C         -3.60382       -0.44635        0.20757
H         -4.81738       -2.12433       -0.34371
C         -6.09158       -0.61788        0.49764
H          3.55353       -1.92380       -0.62651
H          2.76723        0.57279        1.84832
C          3.62997        3.16045        1.39884
C          2.73851        2.26733        0.51690
C          2.99297        0.78054        0.79702
C          4.47126        0.44478        0.54831
C          5.39387        1.33120        1.41110
C          5.11707        2.82839        1.17069
H          3.37635        2.99637        2.45347
H          3.42880        4.22401        1.20850
H          2.96247        2.46741       -0.53825
H          1.67573        2.50753        0.63545
H          4.66492       -0.61838        0.74050
H          4.69575        0.59998       -0.51362
H          5.23037        1.09819        2.47065
H          6.44977        1.09458        1.21883
H          5.39237        3.08708        0.14047
H          5.75783        3.45130        1.81076
C          2.30013       -4.29474       -1.34932
C          1.72852       -2.86519       -1.26467
C          2.52102       -2.00810       -0.26935
C          2.54973       -2.67049        1.11679
C          3.13340       -4.09441        1.04060
C          2.33806       -4.95653        0.04155
H          3.31713       -4.25298       -1.75871
H          1.72431       -4.90470       -2.05919
H          0.68500       -2.90415       -0.93563
H          1.70770       -2.38873       -2.25414
H          3.10295       -2.04716        1.83200
H          1.52860       -2.72441        1.51051
H          4.18157       -4.04018        0.72143
H          3.15185       -4.56238        2.03482
H          1.31283       -5.08386        0.41105
H          2.75610       -5.97128       -0.01928
H         -1.09837       -3.51002        0.49611
C         -1.58949       -5.14362       -0.81094
H         -3.53810       -0.69639        1.26630
C         -5.13052       -0.61295       -1.82635
H         -1.31835       -2.80646       -1.95581
H         -3.03478       -4.72988        1.48774
H         -4.04592       -4.25702        0.13002
H         -3.43185       -3.03502        1.24269
H         -1.42064       -5.92348       -0.06671
H         -2.40068       -5.47699       -1.45891
H         -0.69156       -5.06668       -1.42522
H         -6.21023        0.46615        0.50277
H         -7.02306       -1.04947        0.12796
H         -5.96096       -0.93881        1.53239
H         -5.12420        0.47277       -1.92699
H         -4.37019       -1.02055       -2.49255
H         -6.09771       -0.96743       -2.18666
Fe        -1.06015        2.68199        0.20045
C         -2.57437        2.93348        1.58188
C         -1.73440        4.11560        1.49311
C         -0.37402        3.74793        1.84091
C         -0.37112        2.32060        2.09009
C         -1.72587        1.82186        1.95544
H         -3.65471        2.89590        1.42370
H         -2.08210        5.12771        1.27205
H          0.48495        4.42022        1.90055
H          0.47928        1.72500        2.42433
H         -2.03824        0.79478        2.15141
Pd        -0.18764       -0.78792        0.86863
