111
-148.55505318
P         -1.70154        2.74416        0.36536
P         -0.43173       -0.14085        0.55091
C         -1.34965        2.01390        1.99090
C         -0.86586        0.72503        2.07061
C         -0.59873        4.19487        0.05212
C          0.33550        3.91459       -1.10598
C         -1.53491        2.74939        3.14421
H         -1.87548        3.76950        3.07536
C         -1.25941        2.18112        4.37601
H         -1.40797        2.75406        5.27675
C         -0.78837        0.88427        4.45253
H         -0.56830        0.44456        5.41138
C         -0.58043        0.15693        3.29434
H         -0.17890       -0.84345        3.33259
Pd        -1.58254        0.96954       -1.11306
Cl        -2.85311        2.14975       -2.53350
Cl        -1.34978       -0.82605       -2.44358
C         -1.58835        5.35046       -0.19975
C         -3.35686        3.57121        0.28418
H          0.97820        4.77232       -1.31797
H          0.97650        3.05426       -0.90291
H         -0.23102        3.69113       -2.01232
H         -1.68600        5.49848       -1.28395
H         -1.18046        6.29551        0.18944
H         -3.74516        3.36552       -0.72170
C         -2.99172        5.06149        0.40608
C         -4.32192        3.05654        1.33100
H         -0.03897        4.35781        0.98240
H         -3.00232        5.34527        1.46735
H         -3.76276        5.68435       -0.07281
H         -5.29883        3.53714        1.24202
H         -4.46558        1.97753        1.23918
H         -3.95325        3.25240        2.33812
C         -0.55265       -4.67935        0.88247
C         -1.69141       -3.98056        0.40577
C         -1.64000       -2.59699        0.35484
C         -0.49245       -1.92246        0.67856
C          0.64492       -2.59851        1.03639
C          0.66039       -3.98145        1.11186
O         -0.63569       -6.07017        1.15856
C         -2.97001       -4.70013       -0.05194
H         -2.49707       -2.02309        0.04699
H          1.52999       -2.02454        1.25167
C          1.97790       -4.69783        1.44764
C          3.61159        1.39870       -0.86737
C          2.89851        0.45614       -1.65169
C          1.67170        0.01368       -1.18832
C          1.19338        0.40708        0.03253
C          1.92208        1.24089        0.83876
C          3.15378        1.72682        0.43463
O          4.75872        2.04442       -1.40081
C          3.40317       -0.05146       -3.01057
H          1.04232       -0.61229       -1.79688
H          1.50356        1.52691        1.78733
C          3.94724        2.63165        1.38977
C         -3.69184       -3.88140       -1.14689
C         -2.64302       -6.07451       -0.66409
C         -3.91848       -4.86614        1.14463
C          2.09933       -4.85138        2.97110
C          2.04761       -6.07757        0.76811
C          3.18731       -3.88275        0.93419
C         -1.03957       -6.37388        2.48764
H         -4.10711       -2.95594       -0.75104
H         -3.00769       -3.63048       -1.95714
H         -4.52051       -4.44771       -1.57121
H         -1.93399       -5.96959       -1.48461
H         -2.20392       -6.74264        0.07264
H         -3.54119       -6.55536       -1.05075
H         -4.17959       -3.89606        1.56688
H         -4.84070       -5.36371        0.84565
H         -3.45831       -5.45707        1.93298
H          2.08237       -3.87710        3.45907
H          1.27712       -5.43765        3.37456
H          3.03113       -5.34801        3.24052
H          1.91586       -5.98149       -0.30912
H          3.00900       -6.55678        0.95127
H          1.27267       -6.74288        1.14063
H          3.30892       -2.95028        1.48334
H          4.11238       -4.44635        1.05325
H          3.07380       -3.64579       -0.12336
H         -1.21770       -5.45673        3.05048
H         -1.95175       -6.96989        2.46504
H         -0.26321       -6.95830        2.98110
C          4.47274        3.24466       -2.10864
C          2.89470       -1.48726       -3.27626
C          2.87520        0.86865       -4.12186
C          4.94089       -0.10713       -3.04829
C          3.54716        4.09600        1.15333
C          3.64236        2.27130        2.86190
C          5.46320        2.45501        1.18927
H          3.35225       -1.89957       -4.17521
H          3.14021       -2.14553       -2.44339
H          1.81655       -1.51280       -3.42672
H          1.78554        0.88947       -4.11855
H          3.22529        1.88946       -3.98878
H          3.20343        0.52499       -5.10239
H          5.32193       -0.72731       -2.23760
H          5.29481       -0.52493       -3.99044
H          5.37731        0.88283       -2.94336
H          3.75068        4.40101        0.12979
H          2.48249        4.23834        1.33589
H          4.09492        4.76272        1.81878
H          4.29792        2.81974        3.53795
H          2.61891        2.52366        3.13579
H          3.79321        1.20681        3.03964
H          6.02564        3.04863        1.90952
H          5.77119        2.76716        0.19457
H          5.74749        1.41074        1.31446
H          4.99892        4.07794       -1.64327
H          4.82110        3.15503       -3.13741
H          3.40053        3.44374       -2.10451
