45
-71.81489719
C          2.29387        1.29716        2.43676
P          1.49983        0.89412        0.84472
P         -1.00915        0.16612       -0.90104
C         -0.35796       -0.35951       -2.52277
Cl         1.48233       -1.85894        2.32045
H          1.53933        1.58429        3.16349
H         -0.87281        0.17030       -3.31910
Cl        -1.15784       -2.74073        0.25853
C          0.45311        2.22388        0.21626
C         -0.63016        1.89860       -0.57029
C         -1.42556        2.89091       -1.10500
C         -1.12916        4.21848       -0.85083
C         -0.03868        4.54550       -0.06793
C          0.75741        3.54662        0.46460
H         -2.27242        2.61960       -1.71476
H         -1.74856        4.99664       -1.26552
H          0.19478        5.57947        0.12606
H          1.61776        3.79083        1.06606
Pd         0.11243       -0.97039        0.78196
H         -0.50223       -1.42831       -2.65242
H          2.99549        2.11627        2.30784
H          0.70406       -0.14042       -2.58293
C         -5.45223       -0.61621       -0.30852
C         -4.74445        0.13675        0.60725
C         -3.39527        0.37153        0.40948
C         -2.76631       -0.14342       -0.70142
C         -3.46666       -0.89846       -1.61440
C         -4.81543       -1.13502       -1.41861
H         -6.50262       -0.80243       -0.15477
H         -5.23974        0.53845        1.47590
H         -2.82657        0.95396        1.11763
H         -2.95762       -1.30709       -2.47201
H         -5.36687       -1.72768       -2.12995
C          4.45839       -0.38825       -2.35744
C          3.76804        0.80014       -2.49724
C          2.87740        1.19913       -1.51707
C          2.68944        0.40974       -0.40612
C          3.36684       -0.77916       -0.26673
C          4.25855       -1.18074       -1.24393
H          5.15197       -0.69994       -3.12125
H          3.92082        1.41514       -3.36885
H          2.32457        2.11946       -1.61490
H          3.16956       -1.39592        0.59552
H          4.78992       -2.11229       -1.13887
H          2.83049        0.42953        2.80979
