171
-217.84220174
P         -1.59699        0.38184       -0.41324
P          1.57854       -0.40368       -0.30653
C         -0.86052        1.30760       -1.76259
C          0.89930       -1.39942       -1.63827
C         -0.05966        0.65766       -2.69451
C          0.57414        1.42306       -3.69260
C          0.35710        2.79017       -3.73744
C         -0.46259        3.41107       -2.81893
C         -1.06591        2.66400       -1.82661
C          1.11304       -2.75617       -1.60588
C          0.54909       -3.57263       -2.56575
C         -0.24579       -3.02030       -3.54731
C         -0.47500       -1.65505       -3.59706
C          0.12694       -0.81864       -2.63764
Cl         1.56014        0.35545        2.82709
Cl        -1.66253       -0.44476        2.83388
C         -1.34075       -1.09725       -4.67118
C          1.46540        0.79257       -4.70482
H         -0.62952        4.47445       -2.87274
H         -1.70415        3.14150       -1.10128
H          1.72475       -3.18071       -0.82668
H          0.72456       -4.63577       -2.54214
H          0.84054        3.37000       -4.50560
H         -0.70062       -3.65371       -4.29018
C         -3.97479       -3.24187       -1.69803
C         -2.92264       -3.41004       -0.80633
C         -2.19832       -2.28424       -0.43549
C         -2.50814       -1.05619       -0.96367
C         -3.54183       -0.90755       -1.85548
C         -4.31059       -2.00255       -2.23095
H         -4.55444       -4.10420       -1.96824
H         -1.39088       -2.35252        0.27284
H         -3.76115        0.07363       -2.24296
C         -4.23066        2.90097        2.29968
C         -4.78945        1.81030        1.64376
C         -3.97563        1.08191        0.78666
C         -2.65942        1.42673        0.60506
C         -2.12248        2.50109        1.27065
C         -2.89630        3.25649        2.14163
H         -4.84760        3.48325        2.95619
H         -4.36802        0.22564        0.26696
H         -1.08310        2.73837        1.12273
C          4.36408       -2.82699        2.33114
C          3.00983       -3.14027        2.32559
C          2.17931       -2.41296        1.48354
C          2.68400       -1.39846        0.70880
C          4.02156       -1.09214        0.73932
C          4.89379       -1.80935        1.54751
H          5.02903       -3.37887        2.96834
H          1.12417       -2.62478        1.44553
H          4.37795       -0.27675        0.13591
C          3.88209        3.27729       -1.56852
C          2.90848        3.39728       -0.58432
C          2.19178        2.25933       -0.23999
C          2.44312        1.06247       -0.86236
C          3.41015        0.95788       -1.83209
C          4.15579        2.07142       -2.20270
H          4.46153        4.13922       -1.84060
H          1.44806        2.29937        0.53751
H          3.58819       -0.00472       -2.28049
Pd        -0.06823        0.02318        1.31796
C         -2.39862       -5.79923       -1.37808
C         -2.62195       -4.79924       -0.22810
C         -3.81316       -5.25411        0.63358
C         -1.35746       -4.78216        0.65155
H         -1.58635       -5.46761       -2.02372
H         -2.14165       -6.78561       -0.99231
H         -3.29143       -5.90620       -1.99265
H         -3.62632       -6.23419        1.07210
H         -3.99150       -4.54875        1.44510
H         -4.72542       -5.32008        0.04161
H         -1.13639       -5.77979        1.03060
H         -0.49363       -4.44314        0.08094
H         -1.48495       -4.12480        1.51127
C         -5.02973       -1.28561       -4.53029
C         -5.51424       -1.80359       -3.16508
C         -6.47550       -0.77720       -2.53741
C         -6.28731       -3.11783       -3.38854
H         -4.37907       -2.01618       -5.00915
H         -5.87148       -1.10065       -5.19746
H         -4.47571       -0.35344       -4.42581
H         -7.36274       -0.64321       -3.15598
H         -6.79880       -1.10706       -1.55022
H         -5.99712        0.19531       -2.42947
H         -7.14397       -2.95563       -4.04265
H         -5.65437       -3.87125       -3.85706
H         -6.66267       -3.51684       -2.44632
C         -7.02074        1.66597        0.52225
C         -6.25603        1.39446        1.82873
C         -6.93185        2.17850        2.97041
C         -6.32628       -0.10771        2.16913
H         -8.06570        1.36921        0.61050
H         -6.98901        2.72567        0.26967
H         -6.58244        1.11323       -0.30689
H         -6.97078        3.24463        2.74832
H         -7.95675        1.83854        3.11880
H         -6.39672        2.03916        3.90961
H         -7.35399       -0.41654        2.35938
H         -5.94409       -0.72179        1.35479
H         -5.73694       -0.32749        3.05907
C         -0.89454        4.06285        3.44060
C         -2.27260        4.45597        2.86983
C         -3.15477        4.92867        4.04220
C         -2.11063        5.61300        1.86988
H         -0.18640        3.82200        2.65020
H         -0.46695        4.87810        4.02385
H         -0.98098        3.19170        4.08968
H         -4.11066        5.31468        3.68945
H         -3.34657        4.11228        4.73832
H         -2.66552        5.73040        4.59526
H         -3.08037        5.92889        1.48569
H         -1.63492        6.47379        2.33947
H         -1.50125        5.31086        1.01964
C          1.17564       -3.71676        3.94533
C          2.41353       -4.25358        3.19806
C          3.42450       -4.75831        4.24588
C          2.00669       -5.42965        2.29456
H          1.43500       -2.83936        4.53732
H          0.38244       -3.43064        3.25649
H          0.76898       -4.47105        4.61855
H          4.28983       -5.21932        3.77043
H          3.77101       -3.94107        4.87827
H          2.96923       -5.50879        4.89204
H          1.55311       -6.23233        2.87570
H          1.28886       -5.11096        1.54073
H          2.87477       -5.83518        1.77517
C          6.77506       -0.36231        0.62985
C          6.39341       -1.48739        1.61268
C          7.20369       -2.74504        1.24797
C          6.74993       -1.03271        3.03936
H          6.53542       -0.64203       -0.39589
H          6.25062        0.56294        0.86816
H          7.84411       -0.15489        0.67458
H          6.94086       -3.09556        0.25002
H          8.27345       -2.53700        1.26171
H          7.01432       -3.55714        1.94879
H          6.16825       -0.15442        3.31877
H          6.54206       -1.81618        3.76721
H          7.80667       -0.77717        3.11544
C          1.16800        5.13286       -0.11649
C          2.62384        4.71471        0.14934
C          3.55257        5.84841       -0.32548
C          2.83908        4.50850        1.66088
H          0.47459        4.35641        0.20136
H          0.91966        6.04915        0.41872
H          1.00738        5.30815       -1.17965
H          4.59844        5.59943       -0.14671
H          3.41983        6.04486       -1.38924
H          3.33731        6.77333        0.20951
H          2.64493        5.42822        2.21236
H          2.17873        3.73775        2.05547
H          3.86483        4.20193        1.86443
C          5.06272        3.01524       -4.35068
C          5.30002        1.99208       -3.22386
C          5.40789        0.58780       -3.84979
C          6.62855        2.31026       -2.51287
H          5.84931        2.95489       -5.10266
H          4.10991        2.83488       -4.84609
H          5.05030        4.03432       -3.96636
H          5.62184       -0.16477       -3.09109
H          4.48562        0.31110       -4.35907
H          6.21343        0.55238       -4.58313
H          6.61921        3.31375       -2.08882
H          6.80902        1.60677       -1.70074
H          7.46724        2.24793       -3.20605
H         -2.14169       -1.79279       -4.92245
H          2.36648        1.38790       -4.85073
H         -0.76636       -0.91098       -5.57932
H         -1.80144       -0.15815       -4.36130
H          0.96284        0.70954       -5.66936
H          1.77715       -0.20644       -4.39722
