64
-97.21076843
Cl        -1.50818       -1.43798       -2.59489
Cl         1.63578       -1.65300       -2.86444
P          1.93413       -0.60137        0.30037
C          2.20450       -2.26950        1.05525
C          3.69166       -0.13105       -0.06006
P         -1.27084       -0.13352        0.36319
C          1.22784        0.60468        1.47570
C         -0.20097        0.83936        1.49012
C         -0.47127        1.93634        2.40887
C          0.80297        2.39591        2.93388
C          1.85425        1.56882        2.36659
H         -1.44850        2.36977        2.62639
H          0.94486        3.21165        3.64622
Pd         0.23451       -1.00596       -1.24257
H          2.92545        1.65919        2.55804
C         -4.88925        2.39309       -0.77425
C         -4.14096        1.79240       -1.76686
C         -3.05619        1.00586       -1.42890
C         -2.71286        0.83535       -0.10700
C         -3.47015        1.41527        0.88564
C         -4.56031        2.19961        0.55283
H         -5.73728        3.00512       -1.03514
H         -4.40637        1.92822       -2.80251
H         -2.48916        0.49906       -2.19075
H         -3.21426        1.24042        1.91824
H         -5.15141        2.65756        1.32888
C         -2.70403       -3.95318        2.36158
C         -2.32325       -2.87292        3.13408
C         -1.89202       -1.70806        2.52482
C         -1.84326       -1.63588        1.15198
C         -2.22558       -2.70663        0.37882
C         -2.65734       -3.87221        0.98342
H         -3.03996       -4.86110        2.83548
H         -2.36111       -2.93637        4.20920
H         -1.58951       -0.85537        3.11175
H         -2.17880       -2.62047       -0.69479
H         -2.95563       -4.71387        0.38018
C          3.98119       -0.11079       -1.54457
H          3.84661        0.86520        0.37465
C          4.50006       -1.19915        0.70314
H          4.75493       -0.82979        1.70730
C          3.70700       -2.52781        0.82983
H          5.46101       -1.36754        0.19553
C          1.80192       -2.25464        2.51386
H          1.58896       -2.98367        0.49122
H          4.10343       -3.13994        1.65280
H          3.85122       -3.12608       -0.08166
H          1.96417       -3.22668        2.98561
H          2.38606       -1.51500        3.06511
H          0.74832       -1.99380        2.63230
H          3.81587       -1.09793       -1.97876
H          3.33462        0.59208       -2.07264
H          5.01757        0.16854       -1.74700
Fe         0.78159        2.45996        0.87339
C          2.08956        3.15626       -0.53555
C          1.42968        4.26715        0.12885
C         -0.00282        4.11070       -0.05686
C         -0.22498        2.91127       -0.84360
C          1.06658        2.32056       -1.13644
H          3.16884        3.00526       -0.61022
H          1.92371        5.08275        0.66167
H         -0.77694        4.78781        0.31155
H         -1.19388        2.53170       -1.16893
H          1.23892        1.44117       -1.75961
