59
-75.80619199
Cl         1.42893        0.77528        2.38036
P          1.56211       -0.09550       -0.76889
P         -1.62198       -0.16616       -0.84607
C          0.64563        0.25702       -2.33616
H          0.44578        1.32900       -2.38446
H          1.29802        0.01451       -3.18060
C         -0.63611       -0.52564       -2.36755
H         -0.42694       -1.59707       -2.39756
H         -1.24656       -0.29182       -3.24522
C          2.49275       -1.68968       -0.96833
H          1.86123       -2.39340       -1.52354
C          3.07014        0.97846       -0.63911
H          3.42697        0.86494        0.39204
C         -2.82461       -1.51233       -0.40679
H         -2.76636       -1.61984        0.68340
C         -2.81743        1.22990       -1.11938
H         -2.81101        1.43073       -2.19756
C          3.71276       -1.23590       -1.80255
H          4.58542       -1.84815       -1.53231
H          3.53488       -1.44846       -2.86786
C          4.04049        0.28230       -1.61228
H          3.99248        0.80030       -2.58113
H          5.07788        0.41508       -1.26895
C         -4.18202       -0.91195       -0.80663
H         -4.40691       -1.20208       -1.84230
H         -4.98804       -1.34691       -0.19599
C         -4.17075        0.63381       -0.69110
H         -4.36663        0.92032        0.35142
H         -4.98918        1.07855       -1.27729
C          2.89912       -2.28318        0.38199
H          3.33951       -1.48553        0.99449
H          3.71316       -3.00453        0.22374
C          2.82536        2.45671       -0.93299
H          3.78327        2.93577       -1.17913
H          2.22005        2.54736       -1.84306
C         -2.52337       -2.84974       -1.07348
H         -3.38510       -3.51868       -0.94063
H         -2.44455       -2.69724       -2.15753
C         -2.44975        2.49324       -0.34761
H         -3.31122        3.17562       -0.34808
H         -2.29143        2.22972        0.70630
C          1.76762       -2.96185        1.13731
H          2.09773       -3.34909        2.10397
H          1.36571       -3.80407        0.57152
H          0.94417       -2.27552        1.33165
C          2.17261        3.19114        0.22852
H          1.93923        4.22935       -0.01799
H          2.82442        3.19989        1.10420
H          1.24669        2.70645        0.53767
C         -1.26840       -3.51095       -0.52996
H         -0.40139       -2.86051       -0.64346
H         -1.04457       -4.45178       -1.03795
H         -1.36712       -3.72687        0.53569
C         -1.23085        3.20469       -0.90659
H         -0.98465        4.10588       -0.34037
H         -0.35797        2.55468       -0.88446
H         -1.38558        3.50003       -1.94611
Cl        -1.80830        0.18435        2.27782
Pd        -0.07283        0.11356        0.85593
