59
-75.79939107
Cl         1.53359        0.73051        2.36119
P          1.55246        0.06363       -0.75945
P         -1.62701       -0.09690       -0.79847
C          0.60554        0.37477       -2.31414
H          0.34017        1.43340       -2.35480
H          1.25478        0.16256       -3.16915
C         -0.63026       -0.47989       -2.31015
H         -0.36572       -1.53903       -2.30061
H         -1.25591       -0.31123       -3.19237
C          2.36890       -1.59091       -0.86581
H          1.87442       -2.15943       -1.66290
C          3.04966        1.13681       -0.53059
H          2.97584        1.54935        0.48367
C         -2.84171       -1.42101       -0.32748
H         -2.68317       -1.61578        0.74076
C         -2.80131        1.27255       -1.21299
H         -2.44243        1.74822       -2.13435
C          3.81249       -1.21511       -1.25220
H          4.50570       -2.01151       -0.94575
H          3.89795       -1.15279       -2.34755
C          4.23040        0.14354       -0.62563
H          5.04638        0.59745       -1.20585
H          4.65026       -0.03259        0.37557
C         -4.21628       -0.75447       -0.55455
H         -4.91155       -1.48470       -0.99270
H         -4.65912       -0.47563        0.41289
C         -4.11773        0.50715       -1.45381
H         -4.97428        1.17550       -1.28037
H         -4.18442        0.20701       -2.51040
C          2.24720       -2.32718        0.46479
H          1.19728       -2.31794        0.78781
H          2.78475       -1.75554        1.23337
C          3.11598        2.28410       -1.53455
H          4.13520        2.69505       -1.54549
H          2.95744        1.88254       -2.54363
C         -2.63575       -2.71822       -1.10405
H         -3.53135       -3.34676       -1.00125
H         -2.57103       -2.48467       -2.17454
C         -2.89039        2.30433       -0.09210
H         -3.79328        2.91424       -0.23579
H         -3.04646        1.77668        0.85809
C          2.75485       -3.76122        0.41311
H          3.81540       -3.80430        0.16096
H          2.22041       -4.34014       -0.34256
H          2.62737       -4.27370        1.36938
C          2.12347        3.39705       -1.23136
H          1.10013        3.02451       -1.20123
H          2.16103        4.19539       -1.97600
H          2.32293        3.84734       -0.25699
C         -1.41254       -3.49724       -0.64087
H         -0.50606       -2.89579       -0.70385
H         -1.25065       -4.40000       -1.23414
H         -1.51310       -3.80377        0.40216
C         -1.67137        3.21025       -0.00488
H         -1.75950        3.93817        0.80476
H         -0.76051        2.63907        0.17171
H         -1.52579        3.76655       -0.93283
Cl        -1.76912        0.00749        2.33498
Pd        -0.06214        0.18066        0.89041
