72
-108.39716430
Cl        -1.95495        0.16492        2.76309
Cl         0.87113       -1.47726        2.60324
P          1.23970       -0.97633       -0.30287
P         -2.22118        0.20500       -0.36143
C         -3.39264       -1.28704       -0.29326
C         -4.14038       -1.28197        1.03666
C         -4.39943       -1.24931       -1.45252
C         -3.14910        1.85569       -0.10796
C         -4.49804        1.81496       -0.81809
C         -1.41594        0.39702       -2.05487
C         -1.30888       -0.85418       -2.90932
C          1.16426        0.36109       -1.53544
C         -0.04791        1.05904       -1.97216
C          0.38593        2.19072       -2.79384
C          1.83519        2.17947       -2.84841
C          2.31674        1.01855       -2.12400
C         -2.54935       -2.55812       -0.36858
H         -3.44741       -1.29983        1.87701
H         -4.77836       -0.40598        1.13727
H         -5.27505       -0.64998       -1.20758
H         -4.76511       -2.25187       -1.68069
C         -3.35636        2.14652        1.37332
H         -4.95559        2.80563       -0.82744
H         -5.19451        1.15027       -0.31046
H         -2.09533        1.08781       -2.56735
H         -2.25761       -1.36618       -3.05516
H         -0.60931       -1.55744       -2.46671
H         -0.91662       -0.61367       -3.89941
H         -0.27061        2.86625       -3.34500
H          2.45689        2.88060       -3.40962
Pd        -0.51750       -0.43577        1.16523
H          3.35718        0.73303       -1.95634
C         -2.30782        2.97372       -0.71943
H         -4.38997        1.49288       -1.85405
H         -2.40242        2.25551        1.88716
H         -3.91275        3.07461        1.51323
H         -3.91222        1.35105        1.86638
H         -2.31582        2.94067       -1.80854
H         -2.68777        3.95389       -0.42583
H         -1.27701        2.89969       -0.38735
H         -4.78090       -2.16149        1.12011
H         -3.96780       -0.83503       -2.36099
H         -3.18371       -3.44498       -0.32243
H         -1.97759       -2.61759       -1.29121
H         -1.85285       -2.61812        0.46730
C          2.94456       -1.04998        0.30951
C          3.47078       -2.11701        0.99386
C          4.79515       -1.79898        1.29461
C          5.02448       -0.54812        0.77687
O          3.89733       -0.07728        0.16774
H          2.94867       -3.02371        1.25252
H          5.49948       -2.41438        1.83014
H          5.95705       -0.00053        0.83532
C          0.83567       -2.61842       -0.92550
C          0.55382       -3.65096       -0.06686
C          0.28642       -4.77422       -0.85029
C          0.41848       -4.37773       -2.15898
O          0.75390       -3.05482       -2.22004
H          0.53960       -3.58301        1.00945
H          0.02784       -5.75903       -0.49709
H          0.27954       -5.00900       -3.02790
Fe         1.21800        2.24616       -0.89126
C          2.85105        2.68723        0.22439
C          1.88313        1.95504        1.01735
C          0.65509        2.72020        1.03997
C          0.86006        3.91145        0.23422
C          2.23255        3.91600       -0.23848
H          3.88336        2.37727        0.04566
H          2.05695        1.01029        1.53712
H         -0.24057        2.45318        1.60277
H          0.13841        4.71919        0.09064
H          2.70772        4.69230       -0.84235
