59
-75.79839851
Cl         1.33093        0.56403        2.44200
P          1.46050        0.02629       -0.83013
P         -1.73233       -0.20995       -0.80532
C          0.44972        0.34707       -2.34578
H          0.14400        1.39575       -2.34928
H          1.07927        0.18692       -3.22674
C         -0.75346       -0.55182       -2.33113
H         -0.45067       -1.60190       -2.31965
H         -1.39853       -0.40285       -3.20263
C          2.56955       -1.42111       -1.15870
H          2.27538       -1.78645       -2.15232
C          2.72845        1.33476       -0.48810
H          2.46757        1.78442        0.47823
C         -3.08032       -1.44306       -0.50569
H         -3.15212       -1.55226        0.58355
C         -2.75941        1.32170       -1.02901
H         -2.59513        1.65219       -2.06167
C          3.97276       -0.78569       -1.21250
H          4.72126       -1.50863       -0.85727
H          4.24607       -0.57319       -2.25678
C          4.04149        0.53134       -0.39070
H          4.88483        1.14830       -0.73050
H          4.25793        0.29858        0.66188
C         -4.32216       -0.71688       -1.04744
H         -4.42500       -0.94117       -2.11841
H         -5.23428       -1.11067       -0.57290
C         -4.20531        0.81734       -0.84363
H         -4.53756        1.07121        0.17238
H         -4.88863        1.35554       -1.51770
C          2.41834       -2.54602       -0.13517
H          2.97018       -3.42842       -0.48875
H          1.36666       -2.85748       -0.10613
C          2.73505        2.41071       -1.56944
H          3.01958        1.94921       -2.52425
H          1.71132        2.77787       -1.71893
C         -2.81280       -2.79955       -1.14542
H         -3.72912       -3.40474       -1.10332
H         -2.61219       -2.65561       -2.21492
C         -2.38582        2.43500       -0.05209
H         -3.18405        3.19043       -0.05542
H         -2.38473        2.02313        0.96571
C          2.88351       -2.19110        1.26778
H          3.95431       -1.98437        1.29703
H          2.69131       -2.99772        1.97903
H          2.37532       -1.30292        1.63999
C          3.65074        3.58464       -1.25054
H          4.69228        3.27297       -1.16080
H          3.37312        4.05305       -0.30437
H          3.60922        4.35636       -2.02271
C         -1.66689       -3.54415       -0.48007
H         -0.75082       -2.95456       -0.50433
H         -1.45865       -4.50041       -0.96525
H         -1.88502       -3.74719        0.57019
C         -1.05292        3.10166       -0.35542
H         -1.04385        3.52882       -1.35993
H         -0.83036        3.90853        0.34653
H         -0.22823        2.39185       -0.29894
Cl        -1.76810       -0.26858        2.37697
Pd        -0.13305       -0.04179        0.85135
