59
-75.79934800
Cl         1.32203        0.71261        2.40294
P          1.47628       -0.05314       -0.75114
P         -1.69424       -0.21017       -0.85647
C          0.55923        0.39634       -2.29170
H          0.31977        1.46118       -2.24857
H          1.22436        0.24729       -3.14795
C         -0.69161       -0.43045       -2.39200
H         -0.44537       -1.48951       -2.49454
H         -1.30508       -0.15658       -3.25592
C          2.35593       -1.65865       -1.04313
H          1.82615       -2.12729       -1.88296
C          2.96814        1.01377       -0.52944
H          3.26097        0.93122        0.52403
C         -2.90669       -1.57828       -0.54510
H         -2.89292       -1.74606        0.53905
C         -2.87486        1.21275       -1.04734
H         -2.81496        1.51428       -2.10008
C          3.78176       -1.23613       -1.47332
H          4.51334       -1.73093       -0.82175
H          4.00488       -1.62108       -2.47960
C          3.99782        0.30734       -1.42854
H          3.90924        0.72171       -2.44314
H          5.02142        0.54968       -1.10371
C         -4.24559       -0.95197       -0.96828
H         -4.41759       -1.16839       -2.03186
H         -5.07881       -1.43027       -0.43075
C         -4.24744        0.58264       -0.74315
H         -4.50637        0.79362        0.30360
H         -5.03303        1.06679       -1.34285
C          2.31518       -2.57148        0.18299
H          2.75489       -3.54347       -0.08122
H          1.26863       -2.78625        0.43504
C          2.69989        2.47119       -0.88132
H          2.38579        2.53382       -1.93119
H          1.84065        2.82765       -0.29756
C         -2.57356       -2.87473       -1.27439
H         -3.42903       -3.55993       -1.19472
H         -2.47435       -2.66417       -2.34705
C         -2.55201        2.39995       -0.14385
H         -3.39838        3.10059       -0.16446
H         -2.49670        2.04844        0.89440
C          3.01701       -2.01226        1.41180
H          4.08261       -1.85573        1.24011
H          2.92423       -2.67840        2.27270
H          2.59663       -1.05071        1.70252
C          3.90186        3.37136       -0.63747
H          4.75718        3.06441       -1.24202
H          4.21582        3.33309        0.40735
H          3.68805        4.41514       -0.87872
C         -1.31996       -3.54870       -0.74256
H         -0.45508       -2.89230       -0.83086
H         -1.08862       -4.47168       -1.27914
H         -1.42412       -3.79907        0.31495
C         -1.27374        3.12878       -0.52257
H         -1.31102        3.48550       -1.55357
H         -1.08954        3.99342        0.11918
H         -0.40707        2.47465       -0.43721
Cl        -1.87897        0.05458        2.33282
Pd        -0.17934        0.06529        0.86837
