111
-148.54765367
P         -2.14630        2.27244        1.38590
P          0.10074        0.20319        0.52091
C         -1.15032        1.44274        2.64953
C         -0.18745        0.53379        2.27078
C         -2.21191        4.08962        1.72536
C         -1.73934        4.88156        0.52626
C         -1.35880        1.70905        3.98766
H         -2.09877        2.43763        4.27629
C         -0.61548        1.04320        4.94684
H         -0.77904        1.24898        5.99208
C          0.32898        0.10969        4.56582
H          0.90038       -0.41724        5.31219
C          0.54115       -0.14813        3.22336
H          1.26264       -0.88707        2.91113
Pd        -1.53689        1.37610       -0.65746
Cl        -2.94870        2.80944       -1.63866
Cl        -0.91739        0.17860       -2.45606
C         -3.69062        4.32755        2.09599
C         -3.95369        1.85999        1.44911
H         -2.39037        4.70485       -0.33114
H         -1.74417        5.95563        0.72683
H         -0.72596        4.59498        0.23482
H         -3.99270        5.33330        1.76941
H         -3.80780        4.32488        3.18963
H         -4.18547        1.33204        0.51387
C         -4.62341        3.24900        1.47710
C         -4.29158        0.98804        2.63959
H         -1.55313        4.27073        2.58573
H         -5.57080        3.18974        2.03247
H         -4.89667        3.55034        0.45507
H         -3.69571        0.07265        2.64475
H         -4.09301        1.51548        3.57361
H         -5.34672        0.70459        2.64183
C         -1.16350       -4.08252       -0.33395
C         -2.11194       -3.12829        0.12256
C         -1.66642       -1.84824        0.40843
C         -0.36636       -1.48529        0.17330
C          0.52299       -2.36504       -0.38419
C          0.14673       -3.66246       -0.68792
O         -1.50122       -5.45994       -0.36677
C         -3.61390       -3.41722        0.28377
H         -2.33829       -1.11221        0.81770
H          1.52405       -2.02444       -0.58454
C          1.16666       -4.55746       -1.41199
C          4.38005        0.91385       -0.89710
C          4.09320        0.97638        0.49045
C          2.78789        0.76591        0.90275
C          1.78093        0.56061       -0.00501
C          2.04129        0.60676       -1.34946
C          3.31863        0.82738       -1.83288
O          5.72836        0.89745       -1.34326
C          5.18429        1.22136        1.54449
H          2.54307        0.74978        1.94876
H          1.21861        0.45384       -2.02460
C          3.52917        0.94770       -3.35057
C         -4.03765       -4.71477       -0.42580
C         -3.96107       -3.50998        1.77853
C         -4.42682       -2.26765       -0.35362
C          0.50394       -5.78412       -2.06226
C          1.84334       -3.75428       -2.54570
C          2.24257       -5.01879       -0.41556
C         -1.23904       -6.12057        0.85981
H         -5.11787       -4.85179       -0.38262
H         -3.73835       -4.69466       -1.47314
H         -3.57692       -5.58493        0.03582
H         -5.02789       -3.68083        1.92048
H         -3.42424       -4.32668        2.25728
H         -3.69662       -2.58926        2.29756
H         -4.28252       -1.32730        0.17528
H         -4.13184       -2.11819       -1.39187
H         -5.49365       -2.48865       -0.33495
H         -0.30624       -5.47743       -2.72290
H          1.22357       -6.35562       -2.64795
H          0.08739       -6.45112       -1.31103
H          2.49407       -4.39410       -3.14121
H          1.09562       -3.32225       -3.21027
H          2.45735       -2.94459       -2.15519
H          2.99602       -5.63005       -0.91169
H          2.74680       -4.16427        0.03496
H          1.80805       -5.60977        0.38818
H         -0.17639       -6.07157        1.09093
H         -1.79571       -5.64636        1.66644
H         -1.54176       -7.16464        0.77758
C          6.26943       -0.40866       -1.49837
C          4.59194        1.90076        2.80009
C          5.79919       -0.12357        1.96041
C          6.27803        2.15804        0.99993
C          3.74047       -0.45106       -3.94911
C          2.29074        1.58809       -4.01933
C          4.73069        1.85334       -3.67639
H          4.03717        2.79890        2.52991
H          3.92347        1.23356        3.34238
H          5.38248        2.19139        3.49163
H          6.25500       -0.62743        1.11156
H          6.56741        0.01655        2.72045
H          5.03638       -0.78610        2.36891
H          5.84435        3.09832        0.66117
H          7.01913        2.38262        1.76662
H          6.80107        1.70949        0.15882
H          3.90525       -0.39453       -5.02476
H          4.59899       -0.94690       -3.50212
H          2.86691       -1.07856       -3.77580
H          2.48240        1.79416       -5.07203
H          1.42252        0.93248       -3.97564
H          2.03255        2.52952       -3.53530
H          4.60590        2.83464       -3.21981
H          4.83769        1.99083       -4.75208
H          5.66031        1.42970       -3.30530
H          5.54103       -1.16137       -1.19385
H          6.54549       -0.57119       -2.54001
H          7.16807       -0.50502       -0.88915
