105
-153.06514326
Cl         3.45438        1.08638       -0.80693
Pd         1.28787        0.53557       -1.06012
P         -1.00999        0.13917       -1.40579
N         -0.79895       -1.54261       -1.90700
C          0.08864       -2.34669       -1.17608
C         -0.08724       -2.60650        0.20787
C          0.86375       -3.37988        0.90242
C          0.61101       -3.76945        2.33823
C          1.90940       -4.01286        3.11957
C          2.77841       -5.04151        2.38816
C          3.11735       -4.57929        0.95911
C          2.01443       -3.82721        0.24961
C          2.17140       -3.55911       -1.10466
C          1.22452       -2.86050       -1.80834
H          1.37553       -2.64929       -2.85239
H          3.05934       -3.90864       -1.60388
H          4.00554       -3.93666        0.98460
H          3.69541       -5.24753        2.95799
H          2.46111       -3.06901        3.21175
H         -0.00297       -3.01304        2.84020
C         -1.26789       -2.06286        0.92011
C         -1.07646       -1.03224        1.87497
C         -2.16718       -0.61068        2.63489
C         -3.40298       -1.18010        2.46321
C         -3.61218       -2.18752        1.52755
C         -4.99737       -2.77224        1.40518
C         -5.05017       -4.09330        0.62172
C         -4.18238       -4.01803       -0.63839
C         -2.71755       -3.72044       -0.28099
C         -2.54392       -2.62399        0.73985
H         -2.23520       -4.62890        0.09871
H         -4.56492       -3.22599       -1.29417
H         -6.08662       -4.35467        0.36516
H         -5.64778       -2.03217        0.92514
H         -4.23468       -0.84380        3.05890
H         -2.01882        0.15149        3.37816
N          0.22072       -0.56799        2.15982
P          1.06992        0.68464        1.27671
C          0.44748        2.32887        1.60270
C         -0.30986        2.55217        2.72694
C         -0.84373        3.80728        2.95667
C         -0.61966        4.84366        2.05992
C          0.17661        4.60544        0.94737
C          0.71112        3.35072        0.72122
H          1.35161        3.16739       -0.12687
H          0.37796        5.40997        0.26079
C         -1.18311        6.19865        2.31202
H         -1.44203        3.98785        3.83330
H         -0.48077        1.74134        3.41566
C          2.75715        0.52896        1.87921
C          3.42907       -0.65242        1.66884
C          4.72400       -0.79745        2.13155
C          5.35055        0.23754        2.81230
C          4.65814        1.42558        3.00558
C          3.36295        1.56891        2.54284
H          2.82237        2.48935        2.69281
H          5.14151        2.23978        3.51797
C          6.75574        0.09277        3.28305
H          5.25946       -1.71535        1.95904
H          2.94936       -1.45034        1.12412
H          0.94164       -1.24697        1.93031
H         -0.56161       -1.45920       -2.88665
C         -1.05321        1.22840       -2.84129
C         -0.71869        2.55178       -2.67374
C         -0.75829        3.41372       -3.75413
C         -1.13803        2.95609       -5.00842
C         -1.50039        1.62340       -5.15059
C         -1.45912        0.76258       -4.06897
H         -1.75522       -0.26742       -4.17937
H         -1.81613        1.26377       -6.11503
C         -1.20041        3.88739       -6.16863
H         -0.49411        4.44979       -3.62805
H         -0.43341        2.90758       -1.69647
C         -2.55206        0.49492       -0.57714
C         -2.59264        1.46611        0.39223
C         -3.80273        1.81430        0.96287
C         -4.97815        1.19772        0.55447
C         -4.91884        0.24631       -0.45570
C         -3.70568       -0.10413       -1.02106
H         -3.65033       -0.83539       -1.81193
H         -5.82827       -0.21604       -0.79940
C         -6.28325        1.57798        1.16121
H         -3.83940        2.56799        1.73069
H         -1.67938        1.94417        0.70107
Cl         1.65700        0.13629       -3.24428
H          3.40285       -5.44153        0.34324
H          1.69733       -4.33371        4.14922
H          2.24187       -5.99773        2.34416
H          0.00224       -4.68149        2.34394
H         -4.26145       -4.94627       -1.22169
H         -2.16127       -3.44933       -1.18652
H         -5.41068       -2.91269        2.41222
H         -4.69051       -4.90997        1.26031
H         -0.49083        6.80283        2.89992
H         -1.37781        6.72417        1.37605
H         -2.12520        6.13768        2.85873
H          6.97942       -0.94312        3.54188
H          7.45691        0.40518        2.50805
H          6.93939        0.70220        4.16901
H         -1.00600        3.36277       -7.10511
H         -2.18487        4.35172       -6.24042
H         -0.45892        4.68207       -6.07537
H         -6.73994        2.40294        0.61282
H         -6.98081        0.73922        1.15139
H         -6.15800        1.89103        2.19875
