171
-217.84625253
P         -1.56662        0.43195       -0.25415
P          1.59884       -0.38539       -0.30520
C         -0.84428        1.40148       -1.58226
C          0.84282       -1.32999       -1.63287
C         -0.08790        0.78971       -2.57576
C          0.53208        1.59847       -3.54752
C          0.34569        2.97041       -3.50602
C         -0.42660        3.55478       -2.52430
C         -1.01448        2.76395       -1.55698
C          1.00533       -2.69365       -1.64481
C          0.39802       -3.45686       -2.62207
C         -0.38069       -2.84366       -3.58069
C         -0.55858       -1.46991       -3.58573
C          0.07474       -0.69000       -2.59870
Cl         1.69937        0.36275        2.86543
Cl        -1.57242       -0.36538        2.92302
C         -1.40389       -0.84547       -4.64007
C          1.38467        1.00997       -4.61662
H         -0.56775        4.62306       -2.50773
H         -1.60881        3.21120       -0.77664
H          1.61222       -3.16485       -0.88915
H          0.53266       -4.52603       -2.63442
H          0.81973        3.58375       -4.25373
H         -0.86418       -3.43506       -4.33991
C         -3.86808       -3.21475       -1.60735
C         -2.90122       -3.36183       -0.62111
C         -2.19241       -2.23185       -0.23345
C         -2.43115       -1.02333       -0.83784
C         -3.37922       -0.89661       -1.82384
C         -4.12824       -1.99716       -2.22359
H         -4.45372       -4.07113       -1.88650
H         -1.46247       -2.27811        0.55583
H         -3.54151        0.07384       -2.26150
C         -4.48149        2.86230        2.24117
C         -4.96897        1.87101        1.39877
C         -4.05076        1.16170        0.63857
C         -2.70826        1.43840        0.71268
C         -2.24380        2.42478        1.54779
C         -3.12596        3.15373        2.33665
H         -5.16804        3.41632        2.85326
H         -4.38864        0.37004       -0.00632
H         -1.18380        2.60361        1.59822
C          4.39040       -2.93102        2.21345
C          3.03071       -3.21807        2.22825
C          2.19791       -2.45450        1.42068
C          2.70581       -1.42985        0.66092
C          4.04950       -1.14894        0.67485
C          4.92384       -1.90374        1.44573
H          5.05719       -3.51157        2.82257
H          1.13879       -2.64622        1.39737
H          4.41032       -0.32294        0.08909
C          3.93654        3.21889       -1.71490
C          2.95103        3.39639       -0.75243
C          2.23878        2.27763       -0.33891
C          2.49268        1.04957       -0.89661
C          3.45687        0.89352       -1.86254
C          4.20774        1.98336       -2.28852
H          4.52607        4.06655       -2.01169
H          1.48670        2.35110        0.42728
H          3.62536       -0.08971       -2.26811
Pd         0.03525        0.03773        1.39994
C         -2.37584       -5.78055       -1.04615
C         -2.67858       -4.72917        0.03773
C         -3.94688       -5.12881        0.81208
C         -1.49251       -4.69032        1.01901
H         -1.49928       -5.49335       -1.62556
H         -2.18009       -6.75526       -0.59955
H         -3.21081       -5.89359       -1.73634
H         -3.81526       -6.09069        1.30731
H         -4.18211       -4.38547        1.57365
H         -4.80591       -5.20895        0.14674
H         -0.58347       -4.37385        0.50888
H         -1.68643       -4.00256        1.84168
H         -1.31048       -5.67506        1.44911
C         -5.31268       -0.49285       -3.90191
C         -5.27201       -1.88508       -3.24172
C         -6.60802       -2.11969       -2.51322
C         -5.09426       -2.94347       -4.34722
H         -4.37509       -0.27057       -4.40981
H         -6.11077       -0.43950       -4.64228
H         -5.49844        0.28769       -3.16472
H         -6.64064       -3.11059       -2.06135
H         -6.74789       -1.38660       -1.71905
H         -7.44874       -2.03688       -3.20176
H         -5.14024       -3.95397       -3.94355
H         -5.87682       -2.85368       -5.10048
H         -4.13316       -2.82684       -4.84602
C         -6.92734        1.73556       -0.15934
C         -6.45907        1.51801        1.29150
C         -7.32106        2.39219        2.22193
C         -6.65841        0.04124        1.68280
H         -6.37364        1.10318       -0.85203
H         -7.98617        1.50115       -0.26759
H         -6.77753        2.77202       -0.46103
H         -8.37493        2.12857        2.13315
H         -7.03395        2.25633        3.26445
H         -7.22300        3.44804        1.97024
H         -7.71147       -0.23587        1.63808
H         -6.11103       -0.62387        1.01576
H         -6.30369       -0.13858        2.69740
C         -3.01724        3.77426        4.76010
C         -2.64411        4.21708        3.33360
C         -3.31520        5.56490        3.01134
C         -1.11703        4.40639        3.26700
H         -2.66928        4.49744        5.49742
H         -4.09593        3.67350        4.87385
H         -2.56521        2.81001        4.99203
H         -3.08159        5.87683        1.99349
H         -4.39884        5.50143        3.10184
H         -2.97009        6.34419        3.69064
H         -0.78854        5.16624        3.97590
H         -0.59411        3.48139        3.50961
H         -0.81225        4.72862        2.27253
C          1.19021       -3.83264        3.82983
C          2.43690       -4.34753        3.08182
C          3.44487       -4.85667        4.13091
C          2.04849       -5.51549        2.15985
H          0.78617       -4.60050        4.48917
H          1.43872       -2.96228        4.43672
H          0.39841       -3.54294        3.14150
H          4.31270       -5.31456        3.65709
H          3.78791       -4.04214        4.76867
H          2.98816       -5.61125        4.77125
H          2.92619       -5.91166        1.64947
H          1.59021       -6.32643        2.72565
H          1.34149       -5.19268        1.39770
C          7.21108       -2.87964        1.09712
C          6.43038       -1.61189        1.49100
C          6.81761       -1.18316        2.91761
C          6.81820       -0.48236        0.51629
H          8.28451       -2.69094        1.09420
H          7.01995       -3.69678        1.79153
H          6.92447       -3.21321        0.09991
H          6.60331       -1.97138        3.63846
H          7.88061       -0.95125        2.98107
H          6.25911       -0.29636        3.21671
H          6.55250       -0.74385       -0.50780
H          6.31921        0.45095        0.77668
H          7.89225       -0.29906        0.54302
C          3.94413        5.18405        0.68862
C          2.71401        4.78521       -0.14512
C          1.47338        4.79539        0.76754
C          2.49285        5.81320       -1.27115
H          3.80621        6.16430        1.14451
H          4.11869        4.46145        1.48564
H          4.84112        5.22369        0.07135
H          1.60723        4.12918        1.61950
H          1.28900        5.79584        1.15871
H          0.58517        4.48311        0.21890
H          2.27363        6.79885       -0.86097
H          3.37356        5.90783       -1.90480
H          1.65628        5.51761       -1.90307
C          5.16936        2.86539       -4.44389
C          5.35358        1.84727       -3.30190
C          5.40400        0.43340       -3.91313
C          6.68816        2.12062       -2.58482
H          5.19487        3.88934       -4.07373
H          5.96119        2.76354       -5.18587
H          4.21646        2.71684       -4.94926
H          5.59689       -0.31913       -3.14887
H          4.46637        0.18740       -4.41073
H          6.20096        0.36013       -4.65300
H          6.71181        3.12710       -2.16823
H          6.83728        1.41771       -1.76616
H          7.52847        2.02204       -3.27181
H         -1.75657        0.14088       -4.33567
H          1.66888       -0.01681       -4.38260
H         -2.28011       -1.45918       -4.84924
H         -0.84652       -0.73373       -5.57099
H          2.30286        1.58437       -4.73731
H          0.86348        1.00826       -5.57490
