111
-148.55598903
P         -2.16057        2.09444        1.48573
P          0.17381        0.13596        0.60492
C         -1.05250        1.39860        2.73451
C         -0.04610        0.54034        2.34851
C         -2.21913        3.93957        1.58533
C         -1.35261        4.57302        0.51801
C         -1.20595        1.73001        4.06518
H         -1.98381        2.41738        4.35594
C         -0.35693        1.18390        5.01227
H         -0.47682        1.43924        6.05247
C          0.64369        0.31309        4.62527
H          1.30444       -0.11275        5.36234
C          0.80103       -0.00775        3.28861
H          1.58162       -0.68052        2.97096
Pd        -1.44539        1.33256       -0.56722
Cl        -3.24322        2.29503       -1.48879
Cl        -0.47344        0.48661       -2.40697
C         -3.72258        4.24017        1.45120
C         -3.95386        1.70110        1.74711
H         -1.68831        4.27887       -0.47821
H         -1.38909        5.66370        0.56925
H         -0.30956        4.26308        0.61837
H         -3.95855        4.38648        0.38800
H         -3.96893        5.19358        1.94306
H         -4.30713        1.29791        0.78873
C         -4.58796        3.07989        2.01774
C         -4.16437        0.69898        2.86337
H         -1.86173        4.20694        2.58838
H         -4.70354        3.20893        3.10249
H         -5.60862        3.11744        1.60816
H         -5.21784        0.42747        2.96296
H         -3.59268       -0.21473        2.69472
H         -3.84063        1.10920        3.82085
C         -1.31029       -4.06159       -0.36438
C         -2.16532       -3.12220        0.27201
C         -1.64659       -1.87800        0.59358
C         -0.37328       -1.52644        0.22661
C          0.40258       -2.37856       -0.51497
C         -0.04580       -3.64272       -0.85615
O         -1.68710       -5.42678       -0.44580
C         -3.65019       -3.38446        0.57619
H         -2.24308       -1.15414        1.12201
H          1.36936       -2.04040       -0.84217
C          0.84899       -4.50753       -1.75978
C          4.34097        1.03971       -1.00468
C          4.14393       -0.09407       -0.17570
C          2.86805       -0.34581        0.30103
C          1.82983        0.50762        0.03003
C          2.04130        1.66330       -0.67535
C          3.29234        1.97821       -1.17839
O          5.57516        1.21609       -1.68535
C          5.28032       -1.06797        0.17384
H          2.66488       -1.22768        0.88320
H          1.20251        2.31450       -0.84989
C          3.47416        3.29991       -1.94071
C         -4.49022       -2.18790        0.07667
C         -4.18461       -4.63585       -0.14210
C         -3.84252       -3.54404        2.09305
C          1.41949       -3.64183       -2.90621
C          2.01372       -5.07525       -0.93255
C          0.06868       -5.66149       -2.41298
C         -1.31045       -6.17026        0.70080
H         -5.55466       -2.37334        0.21761
H         -4.24749       -1.27122        0.60955
H         -4.31630       -2.01320       -0.98471
H         -5.25863       -4.74549        0.00616
H         -3.99308       -4.57502       -1.21286
H         -3.70724       -5.53886        0.23090
H         -4.89368       -3.69251        2.33891
H         -3.28561       -4.39948        2.47109
H         -3.49442       -2.66047        2.62636
H          2.10526       -2.88047       -2.53847
H          1.97122       -4.25500       -3.61829
H          0.61627       -3.14043       -3.44537
H          2.58504       -4.27394       -0.46532
H          1.65281       -5.72929       -0.14138
H          2.69285       -5.65177       -1.56015
H          0.69324       -6.20872       -3.11865
H         -0.28360       -6.37014       -1.66691
H         -0.79998       -5.28193       -2.94988
H         -0.22773       -6.15967        0.81335
H         -1.76040       -5.73616        1.59238
H         -1.65068       -7.19997        0.58919
C          5.61596        0.62194       -2.97688
C          5.36677       -2.15838       -0.90508
C          6.62549       -0.32848        0.29086
C          5.01960       -1.74756        1.53740
C          2.51456        4.38210       -1.39400
C          4.90409        3.84551       -1.77640
C          3.15718        3.07322       -3.42686
H          5.58354       -1.73231       -1.88134
H          6.15068       -2.87820       -0.67104
H          4.42421       -2.69900       -0.98256
H          6.55979        0.47336        1.02551
H          7.42032       -1.00716        0.59928
H          6.91984        0.11244       -0.65830
H          4.16974       -2.42716        1.49312
H          5.88280       -2.33624        1.84723
H          4.82681       -1.00434        2.31068
H          2.61500        4.47957       -0.31333
H          2.73236        5.35262       -1.83923
H          1.47500        4.15307       -1.62371
H          5.14809        3.96979       -0.72189
H          5.63891        3.17267       -2.21092
H          5.01312        4.81280       -2.26623
H          3.82006        2.33009       -3.86315
H          3.26528        3.99672       -3.99500
H          2.13475        2.71709       -3.55154
H          4.67887        0.10498       -3.18770
H          5.78398        1.39165       -3.72983
H          6.44258       -0.08667       -3.02644
