105
-153.06140208
Cl         0.47380        3.06789        2.48608
Pd        -0.15733        1.69863        0.81271
P         -0.80489        0.48889       -1.12429
N          0.28848       -0.77067       -1.67382
C          0.52344       -2.11676       -1.37797
C          0.08852       -2.77223       -0.19938
C          0.52363       -4.08626        0.06907
C          0.21847       -4.70659        1.41171
C          0.26490       -6.24085        1.39354
C          1.58257       -6.72566        0.78015
C          1.75157       -6.20210       -0.65669
C          1.30415       -4.77398       -0.86300
C          1.68359       -4.12823       -2.03249
C          1.32025       -2.82894       -2.27405
H          1.64840       -2.33392       -3.17172
H          2.28824       -4.65880       -2.74853
H          2.80034       -6.28929       -0.96816
H          2.41879       -6.37306        1.39703
H          0.12480       -6.65225        2.40318
H          0.94871       -4.32625        2.13615
C         -0.71604       -2.06624        0.82446
C         -0.03304       -1.25375        1.76518
C         -0.76596       -0.66764        2.80061
C         -2.11329       -0.89360        2.91746
C         -2.78376       -1.73496        2.03602
C         -4.24629       -2.00882        2.26032
C         -4.66495       -3.38740        1.73066
C         -4.25753       -3.53601        0.26144
C         -2.74315       -3.33742        0.06092
C         -2.08577       -2.33600        0.98669
H         -2.24012       -4.30314        0.18207
H         -4.80517       -2.79691       -0.33252
H         -5.74478       -3.54829        1.85937
H         -4.83174       -1.22522        1.76561
H         -2.66649       -0.42614        3.71421
H         -0.25932       -0.02151        3.49491
N          1.36525       -1.06173        1.64863
P          1.86424        0.55504        1.14827
C          2.63789        0.57657       -0.46112
C          3.35027       -0.51747       -0.88943
C          3.84453       -0.54650       -2.18143
C          3.61628        0.51422       -3.04823
C          2.92318        1.62293       -2.58243
C          2.43557        1.65565       -1.28935
H          1.87591        2.50708       -0.93520
H          2.75533        2.45629       -3.24331
C          4.13712        0.48118       -4.44255
H          4.39390       -1.40426       -2.53003
H          3.47566       -1.35922       -0.22679
C          2.87134        1.41504        2.35666
C          2.72492        1.14141        3.69555
C          3.48366        1.82903        4.62563
C          4.39022        2.79941        4.21933
C          4.52277        3.06181        2.86296
C          3.76253        2.37329        1.93503
H          3.85829        2.58225        0.88162
H          5.22284        3.81277        2.53867
C          5.21577        3.54315        5.21102
H          3.37048        1.61834        5.67529
H          2.01040        0.40015        4.01329
H          1.93919       -1.24844        2.46580
H          1.08373       -0.25758       -2.03714
C         -0.66747        1.77532       -2.37789
C         -1.01956        3.07618       -2.10783
C         -0.88950        4.04564       -3.08327
C         -0.40784        3.71894       -4.34344
C         -0.08601        2.39548       -4.61078
C         -0.21700        1.42865       -3.63030
H          0.03271        0.40125       -3.83937
H          0.26965        2.12661       -5.59076
C         -0.28427        4.75869       -5.40213
H         -1.16515        5.06466       -2.87183
H         -1.40965        3.32521       -1.13584
C         -2.48755       -0.10738       -1.30274
C         -3.54660        0.35587       -0.55976
C         -4.83121       -0.06187       -0.84865
C         -5.06970       -0.94282       -1.89441
C         -3.99276       -1.38897       -2.64809
C         -2.70706       -0.96961       -2.35181
H         -1.86668       -1.30422       -2.94014
H         -4.16612       -2.06176       -3.47039
C         -6.45733       -1.37126       -2.22357
H         -5.66176        0.30829       -0.27214
H         -3.37004        1.07603        0.21918
Cl        -2.17862        2.68195        0.84700
H          1.18911       -6.84113       -1.34796
H         -0.57505       -6.62194        0.79926
H          1.64182       -7.82294        0.80564
H         -0.75354       -4.35820        1.77883
H         -4.57546       -4.51228       -0.13059
H         -2.53306       -3.04296       -0.97360
H         -4.47606       -1.92039        3.32976
H         -4.17478       -4.16905        2.32468
H          4.20707       -0.54267       -4.81267
H          3.48262        1.03287       -5.11904
H          5.13088        0.92777       -4.49586
H          6.27037        3.28257        5.11119
H          5.11939        4.62020        5.06690
H          4.91046        3.31653        6.23340
H         -0.06881        5.73685       -4.96986
H          0.52231        4.51941       -6.09661
H         -1.20903        4.83989       -5.97494
H         -7.08259       -1.40045       -1.33001
H         -6.91685       -0.68243       -2.93363
H         -6.46726       -2.36811       -2.66672
