111
-148.55836611
P         -2.59208        1.97938        1.03399
P          0.13594        0.45484        0.46936
C         -1.46243        1.61345        2.40346
C         -0.26099        0.98910        2.14572
C         -3.44655        3.60652        1.24603
C         -2.88882        4.64483        0.29714
C         -1.80344        1.94119        3.70001
H         -2.75304        2.41039        3.89892
C         -0.93218        1.65017        4.73570
H         -1.19752        1.90589        5.74854
C          0.27468        1.03033        4.47370
H          0.95182        0.80204        5.28025
C          0.60949        0.69465        3.17413
H          1.54046        0.19634        2.95302
Pd        -1.37942        1.57682       -0.88127
Cl        -3.11541        2.31761       -2.08789
Cl         0.04962        1.24102       -2.58109
C         -4.92650        3.24972        1.01053
C         -4.05148        0.84447        0.96188
H         -3.01562        4.32967       -0.73969
H         -3.39534        5.60579        0.41389
H         -1.82022        4.80120        0.46331
H         -5.16753        3.42883       -0.04640
H         -5.58041        3.92637        1.58147
H         -4.14769        0.53976       -0.08897
C         -5.22122        1.76300        1.36133
C         -3.85924       -0.36182        1.85510
H         -3.28745        3.91070        2.28832
H         -5.39192        1.66841        2.44258
H         -6.15371        1.42427        0.88466
H         -3.69969       -0.05612        2.89077
H         -4.73150       -1.01917        1.83260
H         -2.98862       -0.94494        1.54788
C         -1.16014       -3.86462       -0.17124
C         -0.97062       -3.37950        1.15032
C         -0.56586       -2.06541        1.31409
C         -0.41905       -1.23173        0.23715
C         -0.70813       -1.66375       -1.02943
C         -1.13291       -2.95919       -1.26542
O         -1.29005       -5.25744       -0.40672
C         -1.18434       -4.22746        2.41518
H         -0.34583       -1.68036        2.29471
H         -0.58435       -0.96917       -1.84300
C         -1.57240       -3.31755       -2.69456
C          4.56656        0.66888       -0.54651
C          3.99265       -0.55252       -0.11037
C          2.63860       -0.57206        0.17697
C          1.88325        0.56954        0.11213
C          2.45331        1.77356       -0.20538
C          3.80281        1.86418       -0.50678
O          5.89227        0.68738       -1.05594
C          4.79790       -1.85531        0.01618
H          2.14647       -1.49188        0.44231
H          1.82035        2.64375       -0.23284
C          4.40456        3.24125       -0.82790
C         -2.00539       -3.42067        3.44568
C         -1.97003       -5.51889        2.12910
C          0.18220       -4.58085        3.02547
C         -0.33558       -3.40699       -3.60360
C         -2.35202       -4.64241       -2.75191
C         -2.51389       -2.21421       -3.22843
C         -0.04266       -5.89324       -0.63149
H         -2.95601       -3.10509        3.01715
H         -2.21986       -4.02342        4.32780
H         -1.47508       -2.53158        3.78265
H         -2.19333       -6.05538        3.05100
H         -2.91171       -5.29300        1.62999
H         -1.40494       -6.19016        1.48683
H          0.78463       -5.16250        2.33022
H          0.74166       -3.67991        3.27583
H          0.06235       -5.16585        3.93696
H          0.34640       -4.18467       -3.26510
H         -0.62257       -3.63519       -4.62970
H          0.21166       -2.46483       -3.61020
H         -1.71955       -5.48414       -2.47995
H         -3.19521       -4.62199       -2.06233
H         -2.73644       -4.82908       -3.75435
H         -2.00260       -1.25833       -3.32922
H         -2.90428       -2.47797       -4.21088
H         -3.36029       -2.07287       -2.55690
H          0.59644       -5.78226        0.24303
H         -0.20886       -6.95333       -0.82411
H          0.45666       -5.44513       -1.48901
C          5.97763        0.45795       -2.45692
C          4.75084       -2.61288       -1.31959
C          6.25663       -1.56933        0.41578
C          4.19898       -2.76291        1.11583
C          5.88156        3.31750       -0.40026
C          4.27284        3.51147       -2.33453
C          3.65764        4.35605       -0.06078
H          3.72203       -2.84548       -1.59402
H          5.18155       -2.02176       -2.12405
H          5.30377       -3.54979       -1.25694
H          6.81111       -2.49560        0.56432
H          6.77318       -0.99624       -0.35002
H          6.29534       -0.99834        1.34284
H          3.22077       -3.14933        0.83289
H          4.84106       -3.62435        1.29823
H          4.09513       -2.21852        2.05410
H          5.98686        3.08345        0.65855
H          6.49410        2.61471       -0.95923
H          6.28750        4.31454       -0.56944
H          3.22701        3.48557       -2.63980
H          4.67669        4.48995       -2.59305
H          4.80478        2.76353       -2.91738
H          3.61987        4.13440        1.00548
H          2.63817        4.48126       -0.42240
H          4.16035        5.31486       -0.18562
H          4.98297        0.30800       -2.87874
H          6.45234        1.31211       -2.93947
H          6.59032       -0.42315       -2.64681
