105
-153.07068390
Cl        -0.01174        1.84690        3.07542
Pd        -0.62649        1.13684        1.02570
P         -1.22202        0.49382       -1.13958
N         -0.92181       -1.05394       -1.91349
C          0.09042       -1.97544       -1.63328
C          0.32193       -2.48110       -0.32689
C          1.33644       -3.43958       -0.12732
C          1.54485       -4.00204        1.25900
C          2.42040       -5.26365        1.31304
C          3.64671       -5.11982        0.40744
C          3.21937       -4.88866       -1.04961
C          2.10801       -3.88096       -1.20567
C          1.83883       -3.39667       -2.47936
C          0.84819       -2.47464       -2.69264
H          0.65688       -2.10629       -3.68540
H          2.42713       -3.75405       -3.30758
H          4.07836       -4.56301       -1.65032
H          4.25256       -4.27144        0.74950
H          2.72373       -5.48487        2.34613
H          1.99146       -3.22017        1.88387
C         -0.62221       -2.18839        0.77818
C         -0.14872       -1.60349        1.98632
C         -1.02442       -1.51920        3.07378
C         -2.32094       -1.95195        2.97111
C         -2.80662       -2.51082        1.79530
C         -4.24021       -2.98702        1.77756
C         -4.75003       -3.43829        0.39841
C         -3.66594       -4.20282       -0.36589
C         -2.42423       -3.32213       -0.56449
C         -1.95276       -2.64327        0.69782
H         -1.60252       -3.91924       -0.97930
H         -4.04845       -4.56609       -1.33028
H         -5.05127       -2.56152       -0.18783
H         -4.87903       -2.18753        2.17396
H         -2.98373       -1.86112        3.81506
H         -0.67586       -1.06728        3.98582
N          1.12531       -1.02699        2.09002
P          1.53571        0.17399        0.86589
C          2.65917       -0.41115       -0.39397
C          2.52878        0.06894       -1.67229
C          3.43316       -0.31600       -2.64473
C          4.48466       -1.16743       -2.33128
C          4.60946       -1.62458       -1.02570
C          3.70118       -1.23967       -0.05579
H          3.79737       -1.57992        0.96292
H          5.42015       -2.28676       -0.77423
C          5.43359       -1.61938       -3.38556
H          3.32364        0.04011       -3.65473
H          1.71685        0.73719       -1.90020
C          2.37304        1.60467        1.56089
C          3.17554        1.47541        2.66846
C          3.82621        2.58566        3.17541
C          3.67592        3.82896        2.57527
C          2.87799        3.93272        1.44383
C          2.22892        2.82190        0.93722
H          1.60604        2.89968        0.05960
H          2.76678        4.88912        0.96211
C          4.39168        5.02084        3.10862
H          4.45680        2.49228        4.04300
H          3.29674        0.50837        3.12885
H          1.31432       -0.57093        2.97318
H         -1.19720       -0.93076       -2.87937
C         -0.51589        1.84611       -2.08591
C         -0.57773        3.11874       -1.56873
C         -0.00126        4.17120       -2.25399
C          0.62782        3.95781       -3.47291
C          0.66805        2.66866       -3.98715
C          0.09041        1.61789       -3.29859
H          0.13066        0.61652       -3.69386
H          1.16120        2.49177       -4.92775
C          1.28119        5.08405       -4.19549
H         -0.03625        5.16634       -1.84462
H         -1.08939        3.28182       -0.63320
C         -3.00641        0.68861       -1.16339
C         -3.59962        1.43630       -2.15276
C         -4.97462        1.58542       -2.17146
C         -5.76285        0.99260       -1.19436
C         -5.14545        0.23223       -0.21116
C         -3.77126        0.07968       -0.19993
H         -3.28606       -0.50162        0.56578
H         -5.74764       -0.23368        0.54989
C         -7.24470        1.13613       -1.22144
H         -5.44413        2.16781       -2.94572
H         -2.98541        1.90317       -2.90601
Cl        -2.48910        2.38973        1.19320
H          2.89430       -5.83699       -1.49389
H          1.83036       -6.12986        0.98827
H          4.29925       -6.00055        0.49031
H          0.56414       -4.20871        1.70583
H         -3.38756       -5.10118        0.19925
H         -2.63691       -2.55148       -1.31430
H         -4.33532       -3.81454        2.49082
H         -5.65868       -4.04861        0.49850
H          6.41940       -1.82524       -2.96623
H          5.07404       -2.53161       -3.86375
H          5.55471       -0.85920       -4.15854
H          3.81814        5.93281        2.93714
H          4.55767        4.93237        4.18317
H          5.36298        5.13764        2.62603
H          2.31716        5.20054       -3.87420
H          1.27988        4.91462       -5.27315
H          0.76271        6.02540       -4.00813
H         -7.54095        2.07752       -1.68620
H         -7.70254        0.32272       -1.78600
H         -7.65929        1.12109       -0.21250
