171
-217.83697935
P         -1.67166        0.74855        0.27446
P          1.47569       -0.25642       -0.27086
C         -0.87505        1.83903       -0.92416
C          0.57384       -0.91373       -1.68682
C         -0.24506        1.39994       -2.08253
C          0.42125        2.34263       -2.88820
C          0.41528        3.67720       -2.51922
C         -0.21862        4.09449       -1.36889
C         -0.85544        3.16682       -0.56770
C          0.67718       -2.23956       -2.03093
C         -0.01582       -2.72887       -3.12085
C         -0.82637       -1.88630       -3.85266
C         -0.95492       -0.54862       -3.51661
C         -0.21577       -0.04427       -2.42926
Cl         2.14763        1.13290        2.64277
Cl        -0.92823        0.58573        3.48665
C         -1.84926        0.33606       -4.31302
C          1.14866        1.93977       -4.12303
H         -0.21111        5.13562       -1.09048
H         -1.33583        3.47436        0.34958
H          1.29748       -2.89637       -1.44540
H          0.07323       -3.76646       -3.39794
H          0.92649        4.39219       -3.14175
H         -1.36667       -2.26613       -4.70299
C         -3.00399       -3.39679       -0.98385
C         -1.93542       -3.29889       -0.10142
C         -1.52013       -2.02792        0.27840
C         -2.13982       -0.91210       -0.23564
C         -3.19468       -1.03145       -1.10677
C         -3.65552       -2.28260       -1.49473
H         -3.35166       -4.37247       -1.26933
H         -0.70700       -1.90247        0.97007
H         -3.66662       -0.13655       -1.47179
C         -5.53830        2.77016        1.49816
C         -4.74442        2.21923        2.49626
C         -3.55327        1.61627        2.11654
C         -3.17858        1.57690        0.79810
C         -3.97179        2.13411       -0.17535
C         -5.17602        2.74209        0.15737
H         -6.46692        3.23560        1.77337
H         -2.89534        1.18229        2.84614
H         -3.63748        2.09519       -1.19830
C          3.83156       -3.62568        1.69946
C          4.03561       -3.32826        0.35892
C          3.29728       -2.29041       -0.19603
C          2.37400       -1.59989        0.55154
C          2.19133       -1.91465        1.87806
C          2.92351       -2.92682        2.48262
H          4.40630       -4.41417        2.14946
H          3.44138       -2.01208       -1.22463
H          1.48411       -1.35638        2.46060
C          4.59769        2.62641       -1.85029
C          3.90409        2.96895       -0.69564
C          2.95714        2.07446       -0.21873
C          2.70580        0.89976       -0.87940
C          3.38672        0.58528       -2.03032
C          4.35512        1.44370       -2.53836
H          5.36051        3.28573       -2.21864
H          2.42717        2.28575        0.69224
H          3.14442       -0.33122       -2.53956
Pd         0.24993        0.57029        1.58213
C         -0.05181       -4.27166        1.30590
C         -1.29767       -4.57933        0.45776
C         -0.86846       -5.50112       -0.69966
C         -2.32739       -5.30414        1.34258
H          0.40548       -5.19288        1.66555
H          0.69621       -3.74155        0.71884
H         -0.30593       -3.66553        2.17468
H         -0.14265       -5.00220       -1.33996
H         -0.40683       -6.41229       -0.31943
H         -1.71712       -5.79299       -1.31650
H         -2.64759       -4.66274        2.16350
H         -3.21201       -5.58160        0.77027
H         -1.90475       -6.21364        1.76918
C         -5.47688       -1.09754       -2.81995
C         -4.86403       -2.45621       -2.42556
C         -5.94570       -3.28190       -1.70413
C         -4.42214       -3.18641       -3.70580
H         -6.33866       -1.23615       -3.47262
H         -5.81410       -0.55043       -1.93972
H         -4.75570       -0.48042       -3.35452
H         -6.24869       -2.79270       -0.77853
H         -6.83037       -3.39739       -2.33013
H         -5.58378       -4.27823       -1.45339
H         -4.00083       -4.16490       -3.47804
H         -5.26441       -3.33337       -4.38166
H         -3.66414       -2.61033       -4.23432
C         -4.16913        1.62997        4.90460
C         -5.19570        2.28915        3.96211
C         -6.54024        1.55486        4.11531
C         -5.35780        3.76380        4.37433
H         -4.03311        0.57637        4.66184
H         -3.20100        2.12602        4.83933
H         -4.50082        1.68933        5.94102
H         -6.44705        0.51388        3.80632
H         -6.87763        1.57076        5.15153
H         -7.31567        2.01665        3.50524
H         -4.41904        4.30307        4.24916
H         -6.11391        4.26366        3.77008
H         -5.65796        3.84621        5.41880
C         -5.50610        3.22407       -2.31984
C         -6.09923        3.35817       -0.90299
C         -6.29794        4.85406       -0.59760
C         -7.45824        2.63501       -0.87379
H         -5.36474        2.17760       -2.58922
H         -6.17087        3.66753       -3.06100
H         -4.54493        3.73276       -2.39275
H         -6.76535        5.00144        0.37527
H         -5.34088        5.37544       -0.59154
H         -6.93399        5.32420       -1.34743
H         -7.33151        1.56992       -1.06699
H         -7.94371        2.74342        0.09538
H         -8.13099        3.03780       -1.63076
C          6.43633       -4.04062        0.19219
C          5.04627       -4.14019       -0.46281
C          5.15332       -3.61794       -1.90944
C          4.59277       -5.61070       -0.50564
H          7.18013       -4.58797       -0.38661
H          6.75685       -3.00093        0.25664
H          6.43123       -4.45248        1.20057
H          5.48025       -2.57846       -1.92627
H          5.87762       -4.20042       -2.47865
H          4.19588       -3.68898       -2.42540
H          4.54647       -6.03902        0.49503
H          3.60137       -5.69428       -0.95095
H          5.28110       -6.21478       -1.09647
C          2.45895       -4.72156        4.18675
C          2.80094       -3.23431        3.98282
C          1.69971       -2.38580        4.65101
C          4.14289       -2.91389        4.66582
H          2.37650       -4.95902        5.24725
H          1.50903       -4.96841        3.71500
H          3.22422       -5.36896        3.76069
H          1.61555       -2.62657        5.71049
H          1.92127       -1.32152        4.57386
H          0.72815       -2.56937        4.19329
H          4.40724       -1.86680        4.51906
H          4.09098       -3.10262        5.73792
H          4.94865       -3.52267        4.25706
C          4.63914        3.92680        1.49998
C          4.15842        4.27005        0.07763
C          2.84881        5.07652        0.15457
C          5.22889        5.14120       -0.60658
H          5.55244        3.33341        1.46460
H          4.84500        4.83142        2.07168
H          3.88974        3.35260        2.04348
H          2.48538        5.31353       -0.84498
H          2.06900        4.51754        0.67058
H          2.99761        6.01339        0.69096
H          6.18461        4.62008       -0.65882
H          4.92576        5.41190       -1.61788
H          5.38791        6.06538       -0.05107
C          4.61858       -0.14260       -4.51168
C          5.19967        1.07680       -3.76800
C          6.62565        0.73597       -3.30063
C          5.24971        2.26052       -4.75378
H          4.63605       -1.03371       -3.88511
H          3.59028        0.04109       -4.82169
H          5.20046       -0.36289       -5.40655
H          7.08618        1.58621       -2.79826
H          6.61193       -0.09844       -2.59955
H          7.25853        0.45954       -4.14374
H          4.24756        2.54541       -5.07126
H          5.72264        3.13444       -4.30832
H          5.82006        1.99830       -5.64478
H         -2.70948       -0.21548       -4.69478
H          2.15248        2.36518       -4.13089
H         -1.31952        0.75954       -5.16718
H         -2.22890        1.16046       -3.70724
H          0.62845        2.29159       -5.01508
H          1.24974        0.85644       -4.19538
