58
-89.86604147
P          1.68838        0.30769        0.75796
C          2.90862        1.54394        0.31056
C          4.21401        1.17341        0.08253
C          5.14743        2.13012       -0.27347
C          4.76415        3.45096       -0.39950
C          3.45225        3.81723       -0.17094
C          2.52078        2.85824        0.18579
H          1.49069        3.12717        0.36021
H          4.49549        0.13709        0.17789
C          2.34154       -1.34996        0.50592
C          2.45565       -1.81374       -0.78477
C          2.91606       -3.09463       -1.02410
C          3.26472       -3.90580        0.03695
C          3.16053       -3.43543        1.33108
C          2.69983       -2.15253        1.56584
H          2.62304       -1.77772        2.57313
H          2.18017       -1.16420       -1.59970
C          1.25553        0.60373        2.51958
C          0.14706       -0.28899        3.05743
C         -1.24710        0.17103        2.67205
P         -1.68652        0.00394        0.89286
C         -1.91106       -1.73019        0.46234
C         -3.13387       -2.22304        0.06707
C         -3.26186       -3.55699       -0.27502
C         -2.16115       -4.38973       -0.22743
C         -0.93231       -3.88931        0.15326
C         -0.81082       -2.55561        0.49613
H          0.15163       -2.14375        0.74416
H         -3.98108       -1.56110        0.00710
C         -3.19655        0.96389        0.68540
C         -3.19825        2.11737       -0.06568
C         -4.35909        2.85885       -0.19007
C         -5.51100        2.44659        0.44960
C         -5.50237        1.29955        1.21792
C         -4.33926        0.56034        1.33994
H         -4.31546       -0.32645        1.95366
H         -2.29296        2.43158       -0.55946
Pd        -0.08198        0.48722       -0.72662
Cl         1.43021        0.86044       -2.34920
Cl        -1.80721        0.46531       -2.16975
H         -2.01180       -0.38632        3.21865
H         -1.38393        1.22347        2.92868
H          0.30359       -1.32260        2.72649
H          0.21746       -0.32924        4.15570
H          2.18576        0.46803        3.07679
H          0.98511        1.65655        2.61921
H          6.17020        1.84371       -0.45556
H          3.15242        4.84714       -0.27400
H          2.99976       -3.45762       -2.03523
H          3.43761       -4.06748        2.15880
H         -4.21887       -3.94390       -0.58452
H         -0.06615       -4.53007        0.17210
H         -4.36352        3.75588       -0.78724
H         -6.39880        0.98119        1.72428
H          5.48974        4.19704       -0.67987
H          3.62232       -4.90613       -0.14523
H         -2.25933       -5.42850       -0.49760
H         -6.41675        3.02265        0.35199
