45
-71.81505777
C          2.26607        1.52204        2.33435
P          1.48874        0.97498        0.77729
P         -1.00395        0.08401       -0.93728
C         -0.34781       -0.55920       -2.51364
Cl         1.45605       -1.60351        2.49032
H          2.96209        2.33306        2.14025
H         -0.47027       -1.63771       -2.55551
Cl        -1.12874       -2.74064        0.56402
C          0.43543        2.23629        0.02800
C         -0.63656        1.83910       -0.74138
C         -1.43246        2.77807       -1.36422
C         -1.14917        4.12437       -1.21565
C         -0.07070        4.52308       -0.44964
C          0.72651        3.57743        0.17106
H         -2.26985        2.45107       -1.95971
H         -1.76941        4.86097       -1.69925
H          0.15256        5.57132       -0.33754
H          1.57788        3.87716        0.76013
Pd         0.11091       -0.89700        0.83557
H          0.70927       -0.32425       -2.59686
H          2.80665        0.69502        2.78564
H         -0.87632       -0.10658       -3.34775
C         -5.43673       -0.70343       -0.28013
C         -4.75655        0.18792        0.52570
C         -3.41041        0.42317        0.30885
C         -2.75703       -0.22893       -0.71233
C         -3.42960       -1.12253       -1.51437
C         -4.77529       -1.35997       -1.29916
H         -6.48466       -0.89013       -0.11093
H         -5.27089        0.69719        1.32403
H         -2.86295        1.11226        0.93293
H         -2.90100       -1.63817       -2.29947
H         -5.30493       -2.06057       -1.92363
C          4.48157       -0.55979       -2.27841
C          4.28812       -1.24569       -1.09517
C          3.38615       -0.76635       -0.16342
C          2.69244        0.39383       -0.41762
C          2.87374        1.07658       -1.59817
C          3.77465        0.59947       -2.53299
H          5.18302       -0.93244       -3.00692
H          4.83219       -2.15523       -0.90049
H          3.19311       -1.30150        0.75265
H          2.30783        1.97491       -1.78502
H          3.92254        1.13091       -3.45872
H          1.50305        1.86435        3.02754
