171
-217.84273319
P         -1.59139        0.39270       -0.41680
P          1.66913       -0.38719       -0.40919
C         -0.88085        1.36351       -1.74459
C          0.96317       -1.32574       -1.76815
C         -0.06498        0.76355       -2.69619
C          0.54671        1.57571       -3.66945
C          0.28615        2.93630       -3.67845
C         -0.55138        3.50615       -2.74294
C         -1.12584        2.71454       -1.76778
C          1.19740       -2.67886       -1.81046
C          0.60541       -3.45750       -2.78517
C         -0.23900       -2.87287       -3.70459
C         -0.48630       -1.51059       -3.68222
C          0.14239       -0.71120       -2.70768
Cl         1.62439        0.41662        2.74155
Cl        -1.51091       -0.56070        2.77923
C         -1.41429       -0.92500       -4.68886
C          1.43918        0.98616       -4.70432
H         -0.75394        4.56437       -2.76926
H         -1.76964        3.15089       -1.02083
H          1.84661       -3.13050       -1.07801
H          0.79644       -4.51760       -2.82090
H          0.74571        3.55169       -4.43339
H         -0.71923       -3.47770       -4.45531
C         -3.93376       -3.25981       -1.67541
C         -2.95029       -3.39358       -0.70234
C         -2.22202       -2.26326       -0.35817
C         -2.47141       -1.06119       -0.97056
C         -3.44470       -0.94291       -1.93161
C         -4.20180       -2.04834       -2.30229
H         -4.52606       -4.11448       -1.94255
H         -1.47144       -2.31282        0.41229
H         -3.61830        0.02386       -2.37296
C         -4.32418        2.84422        2.25171
C         -4.87599        1.86142        1.43737
C         -4.01795        1.13964        0.61978
C         -2.67113        1.40097        0.61025
C         -2.14347        2.38095        1.41353
C         -2.96030        3.11659        2.26150
H         -4.97020        3.40336        2.90062
H         -4.40339        0.35280       -0.00479
H         -1.08115        2.55724        1.39889
C          4.22894       -2.89051        2.37449
C          4.81757       -1.82371        1.70633
C          4.02604       -1.08492        0.83552
C          2.70939       -1.41848        0.63731
C          2.14633       -2.47895        1.30335
C          2.89330       -3.23147        2.19923
H          4.82971       -3.45693        3.06073
H          4.42403       -0.22861        0.32089
H          1.10649       -2.70597        1.13934
C          3.93583        3.38940       -1.43949
C          2.88452        3.45541       -0.53262
C          2.17926        2.28825       -0.27354
C          2.52921        1.10942       -0.88344
C          3.57640        1.05764       -1.77011
C          4.30595        2.20347       -2.06500
H          4.48748        4.28364       -1.65556
H          1.35693        2.29399        0.42112
H          3.83598        0.11306       -2.21840
Pd         0.01804       -0.02169        1.21836
C         -3.60414       -5.84227       -0.45037
C         -2.66184       -4.71740        0.01818
C         -2.85104       -4.52108        1.53458
C         -1.21193       -5.14025       -0.27269
H         -3.38616       -6.77228        0.07460
H         -4.64567       -5.58845       -0.25388
H         -3.48890       -6.03169       -1.51744
H         -3.86919       -4.20243        1.75683
H         -2.66064       -5.44795        2.07529
H         -2.17348       -3.76327        1.92516
H         -0.96074       -6.06360        0.24886
H         -1.06780       -5.30476       -1.33997
H         -0.50963       -4.37082        0.04399
C         -6.68436       -2.19186       -2.56338
C         -5.35855       -1.94663       -3.30684
C         -5.18307       -3.00307       -4.41436
C         -5.41874       -0.55481       -3.96677
H         -7.53343       -2.11448       -3.24225
H         -6.70503       -3.18337       -2.11222
H         -6.82028       -1.46023       -1.76702
H         -5.20812       -4.01380       -4.00940
H         -5.97844       -2.92487       -5.15540
H         -4.23151       -2.87256       -4.92817
H         -5.60179        0.22407       -3.22691
H         -4.48920       -0.32519       -4.48654
H         -6.22633       -0.50812       -4.69720
C         -6.56760        0.05947        1.84940
C         -6.37430        1.52716        1.42316
C         -6.92526        1.72785       -0.00120
C         -7.16978        2.42719        2.38761
H         -6.15663       -0.10895        2.84456
H         -7.62457       -0.20529        1.87010
H         -6.06708       -0.62220        1.16249
H         -6.42626        1.07328       -0.71478
H         -7.99262        1.51124       -0.04113
H         -6.77627        2.75606       -0.33024
H         -6.82830        2.29977        3.41469
H         -7.06895        3.47798        2.11656
H         -8.23097        2.17990        2.36039
C         -1.60210        5.22277        2.35748
C         -2.32252        4.15318        3.19730
C         -1.30624        3.44293        4.11264
C         -3.37416        4.85051        4.08087
H         -2.29849        5.71570        1.67942
H         -1.15289        5.98409        2.99499
H         -0.80830        4.78041        1.75884
H         -0.50990        2.97527        3.53494
H         -0.84575        4.14633        4.80594
H         -1.79425        2.66217        4.69548
H         -2.90316        5.58143        4.73807
H         -4.10895        5.37868        3.47351
H         -3.89710        4.13065        4.71022
C          7.17553       -2.68963        1.69644
C          6.28497       -1.46558        1.98063
C          6.43199       -1.04404        3.45369
C          6.76111       -0.30360        1.08773
H          8.22716       -2.45141        1.85516
H          6.92342       -3.52575        2.34738
H          7.05658       -3.02023        0.66474
H          6.14988       -1.85367        4.12583
H          7.46081       -0.76426        3.67952
H          5.79235       -0.18948        3.67371
H          6.66651       -0.56233        0.03375
H          6.18413        0.60150        1.27676
H          7.80870       -0.07145        1.27901
C          0.88632       -3.93584        3.54194
C          2.23076       -4.39889        2.94416
C          3.11559       -4.91224        4.09667
C          1.98948       -5.54902        1.95216
H          0.17756       -3.65401        2.76528
H          0.42738       -4.72918        4.13148
H          1.03088       -3.07233        4.19083
H          3.34901       -4.10926        4.79569
H          2.60764       -5.70030        4.65250
H          4.05056       -5.32846        3.72261
H          1.36809       -5.22195        1.12019
H          2.93281       -5.90706        1.54020
H          1.49088       -6.38775        2.43768
C          3.52597        5.86877       -0.03399
C          2.48385        4.75441        0.18196
C          2.36357        4.49571        1.69753
C          1.13094        5.23015       -0.37040
H          3.25217        6.76627        0.52062
H          4.51127        5.55369        0.30926
H          3.59712        6.14459       -1.08581
H          3.30128        4.11065        2.09738
H          2.12025        5.41398        2.23169
H          1.58327        3.76982        1.92066
H          0.36532        4.46855       -0.23054
H          0.80002        6.14023        0.12959
H          1.20464        5.43804       -1.43747
C          6.53509        1.12075       -2.44211
C          5.50943        2.11494       -3.01652
C          6.20283        3.48020       -3.19157
C          5.03995        1.63019       -4.39903
H          6.86924        1.44229       -1.45600
H          6.10771        0.12342       -2.34544
H          7.41066        1.04652       -3.08682
H          7.05317        3.39740       -3.86840
H          5.51853        4.21708       -3.61176
H          6.57616        3.85610       -2.23912
H          5.88055        1.54197       -5.08712
H          4.55889        0.65504       -4.33469
H          4.32809        2.33359       -4.82923
H         -2.33209       -1.50999       -4.75138
H          0.86389        0.63163       -5.56017
H         -0.95877       -0.91288       -5.67997
H         -1.69337        0.09750       -4.43140
H          2.00269        0.14261       -4.30292
H          2.15535        1.72243       -5.06964
