45
-71.81453582
C          0.30958        0.64545        2.49145
P          0.92882        0.63337        0.77448
P         -1.61213        0.26165       -1.03624
C         -2.38617       -0.09392       -2.64902
Cl         1.85653       -2.37233        0.27402
H          0.61149       -0.26386        3.00324
H         -2.76441       -1.11215       -2.65837
Cl        -1.09341       -2.84361       -1.35676
C          0.28500        2.04019       -0.15398
C         -0.81220        1.87749       -0.97088
C         -1.31747        2.95036       -1.67619
C         -0.70895        4.18875       -1.57042
C          0.39507        4.35034       -0.75557
C          0.89303        3.27369       -0.04301
H         -2.18708        2.81589       -2.29856
H         -1.09926        5.02821       -2.12194
H          0.86828        5.31492       -0.67298
H          1.75307        3.38432        0.59783
Pd         0.04398       -1.20329       -0.33357
H         -1.65315        0.01716       -3.44291
H         -0.77503        0.70344        2.49210
H         -3.21125        0.58986       -2.82660
C         -4.47646       -0.19957        2.46125
C         -3.99342        1.05178        2.13074
C         -3.13135        1.19670        1.05880
C         -2.76502        0.09163        0.32585
C         -3.23535       -1.15789        0.65659
C         -4.09774       -1.30646        1.72692
H         -5.14785       -0.31307        3.29670
H         -4.28580        1.91402        2.70723
H         -2.73914        2.16491        0.79249
H         -2.90050       -2.01060        0.08767
H         -4.46721       -2.28398        1.98988
C          5.46224        0.47429        0.41819
C          4.68312        0.77952       -0.68011
C          3.30623        0.83163       -0.55423
C          2.72018        0.58450        0.66641
C          3.49237        0.27386        1.76245
C          4.86912        0.22003        1.63905
H          6.53477        0.43003        0.32140
H          5.14477        0.97314       -1.63437
H          2.68267        1.06198       -1.40403
H          3.01855        0.06588        2.70790
H          5.47711       -0.02545        2.49429
H          0.70859        1.50442        3.02332
