111
-148.54985686
P         -2.42377        2.23534       -0.11551
P          0.03925        0.34542        0.49137
C         -1.78997        2.11031        1.57433
C         -0.73436        1.26600        1.83860
C         -2.62330        4.00007       -0.63073
C         -1.81503        4.28391       -1.87791
C         -2.37003        2.83204        2.59765
H         -3.17999        3.50859        2.37901
C         -1.90635        2.68411        3.89338
H         -2.36032        3.24491        4.69402
C         -0.86988        1.81102        4.16217
H         -0.51652        1.68587        5.17246
C         -0.28435        1.09743        3.13190
H          0.51454        0.39964        3.32900
Pd        -1.16067        0.82943       -1.44756
Cl        -2.56933        1.26438       -3.13667
Cl        -0.01125       -0.81040       -2.47222
C         -4.14761        4.14559       -0.82308
C         -4.16570        1.63334       -0.32258
H         -0.75375        4.07645       -1.72006
H         -2.15306        3.65718       -2.70503
H         -1.91371        5.32590       -2.19173
H         -4.34767        4.85807       -1.63651
H         -4.59790        4.59061        0.07632
H         -4.10838        0.71567       -0.92400
C         -4.82782        2.77850       -1.11523
C         -4.83207        1.35204        1.00737
H         -2.26725        4.61575        0.20656
H         -5.90098        2.81918       -0.87790
H         -4.76913        2.56712       -2.19311
H         -4.25102        0.64573        1.60289
H         -4.93235        2.26871        1.59024
H         -5.83447        0.93845        0.87403
C         -1.20219       -4.02566        0.71375
C          0.16507       -3.71531        0.48549
C          0.53427       -2.38190        0.43059
C         -0.37831       -1.38602        0.65741
C         -1.67402       -1.68200        0.99238
C         -2.10825       -2.99472        1.08017
O         -1.67819       -5.34355        0.49316
C          1.25745       -4.77567        0.26935
H          1.54341       -2.10615        0.18148
H         -2.35415       -0.86682        1.17580
C         -3.53781       -3.24045        1.59144
C          4.51293        1.17516        0.04638
C          3.84185        0.34795       -0.88872
C          2.48096        0.15370       -0.72987
C          1.80289        0.66548        0.34531
C          2.47059        1.38480        1.30319
C          3.83071        1.62684        1.20439
O          5.85182        1.58409       -0.19383
C          4.55295       -0.31254       -2.08048
H          1.91590       -0.38399       -1.46965
H          1.90865        1.77692        2.13077
C          4.54057        2.39365        2.33188
C          1.60820       -4.84684       -1.22603
C          2.52353       -4.38723        1.06544
C          0.82419       -6.16621        0.76534
C         -4.54728       -2.77555        0.52824
C         -3.79833       -4.71736        1.93485
C         -3.75596       -2.43275        2.88976
C         -2.14720       -5.54139       -0.83034
H          2.42067       -5.55100       -1.40335
H          0.75303       -5.16678       -1.81732
H          1.91923       -3.87180       -1.59846
H          2.28574       -4.24131        2.11873
H          3.27969       -5.16893        0.99708
H          2.97408       -3.46985        0.69063
H          1.64104       -6.88327        0.68707
H          0.50883       -6.12159        1.80717
H         -0.00824       -6.55133        0.18103
H         -4.41240       -1.71997        0.29580
H         -4.42802       -3.33555       -0.39748
H         -5.57076       -2.91405        0.87557
H         -3.76618       -5.34174        1.04543
H         -3.04648       -5.08849        2.63046
H         -4.77888       -4.84698        2.39237
H         -3.66850       -1.36137        2.72095
H         -4.74754       -2.61851        3.30167
H         -3.02056       -2.71289        3.64342
H         -1.33040       -5.41615       -1.53858
H         -2.55143       -6.54971       -0.92210
H         -2.92568       -4.81662       -1.06386
C          5.96406        2.78098       -0.95391
C          3.88276       -1.66007       -2.43290
C          4.46383        0.61533       -3.30133
C          6.02492       -0.62206       -1.75242
C          3.83071        2.15961        3.68507
C          5.99321        1.91144        2.49860
C          4.51494        3.89762        2.02051
H          3.83016       -2.30397       -1.55580
H          2.87459       -1.52285       -2.82047
H          4.45079       -2.18606       -3.19979
H          4.95427        0.17050       -4.16674
H          3.42356        0.80624       -3.56405
H          4.93605        1.57466       -3.10270
H          6.50692       -1.15022       -2.57476
H          6.59174        0.28699       -1.56920
H          6.09617       -1.24476       -0.86124
H          4.40530        2.59345        4.50315
H          2.84450        2.62095        3.70864
H          3.71731        1.09430        3.88444
H          6.47728        2.40857        3.33884
H          6.02277        0.83707        2.67705
H          6.58425        2.11830        1.60982
H          5.03049        4.11624        1.08859
H          4.99751        4.46863        2.81333
H          3.48950        4.25361        1.92392
H          6.54586        3.51402       -0.39521
H          6.48413        2.57545       -1.88927
H          4.97573        3.18849       -1.17023
