72
-108.39486518
Cl        -1.90734        0.70386        2.65114
Cl         0.84977       -0.92912        2.80369
P          1.15372       -1.09326       -0.21766
P         -2.23510        0.17225       -0.42594
C         -3.26349       -1.41593       -0.25363
C         -3.68720       -1.58961        1.20621
C         -4.49077       -1.34034       -1.15526
C         -3.31087        1.72721       -0.19196
C         -4.05711        2.05864       -1.49113
C         -1.36678        0.46951       -2.07940
C         -1.41688       -0.68667       -3.05697
C          1.19617        0.23307       -1.46347
C          0.05622        0.99510       -1.97587
C          0.58824        2.03211       -2.86361
C          2.03397        1.92976       -2.86139
C          2.40745        0.81651       -2.00937
C         -2.40946       -2.61860       -0.63203
H         -2.82363       -1.59618        1.87122
H         -4.35968       -0.80399        1.53910
H         -5.17928       -0.56218       -0.83060
H         -5.03916       -2.28355       -1.13576
C         -4.32743        1.58447        0.93711
H         -3.39779        2.48757       -2.24496
H         -4.83491        2.80120       -1.30518
H         -1.95486        1.28478       -2.51087
H         -0.77748       -1.49863       -2.71836
H         -1.03915       -0.38613       -4.03649
H         -2.42665       -1.06843       -3.20128
H         -0.00728        2.71054       -3.47727
H          2.72133        2.55103       -3.43978
Pd        -0.54316       -0.26061        1.16519
H          3.42218        0.46999       -1.80096
C         -2.33928        2.84858        0.13799
H         -4.53665        1.17996       -1.91879
H         -4.81493        2.54068        1.13238
H         -5.11380        0.87624        0.68335
H         -3.85418        1.27103        1.86507
H         -1.55072        2.90963       -0.61324
H         -2.85040        3.81293        0.17124
H         -1.88266        2.68406        1.11328
H         -4.21196       -2.53661        1.34235
H         -4.21721       -1.13992       -2.18993
H         -1.50808       -2.65349       -0.02284
H         -2.95438       -3.54866       -0.46180
H         -2.12142       -2.60736       -1.67963
C          2.83197       -1.26195        0.44441
C          3.70193       -2.20188       -0.05228
C          4.90045       -2.06506        0.64936
C          4.71258       -1.04232        1.54579
O          3.44985       -0.53940        1.42648
H          3.48743       -2.90666       -0.84031
H          5.79680       -2.64801        0.51424
H          5.44764       -0.67504        2.25138
C          0.72338       -2.71663       -0.86696
C          0.73619       -3.83368       -0.06908
C          0.37036       -4.91404       -0.87393
C          0.14959       -4.40803       -2.13180
O          0.35958       -3.05804       -2.14074
H          0.98588       -3.85525        0.98030
H          0.28061       -5.94351       -0.56796
H         -0.14973       -4.98165       -3.00017
Fe         1.34110        2.16242       -0.94006
C          2.16140        3.95703       -0.47619
C          2.98942        2.86993        0.01542
C          2.19008        2.07007        0.92324
C          0.87117        2.65898        0.99651
C          0.84691        3.81941        0.12455
H          2.47786        4.74930       -1.15890
H          4.03848        2.69558       -0.23554
H          2.51193        1.16339        1.43522
H          0.06599        2.30690        1.64357
H          0.01549        4.51738        0.00177
