105
-153.06512595
Cl         0.14307        2.76697        2.74238
Pd        -0.22954        1.75328        0.76523
P         -0.70544        0.52664       -1.19561
N          0.45947       -0.74020       -1.57126
C          0.54079       -2.13064       -1.39201
C          0.02428       -2.82167       -0.26258
C          0.33242       -4.18722       -0.08648
C          0.00355       -4.86711        1.22184
C         -0.14293       -6.38857        1.08479
C          1.10114       -6.97965        0.41369
C          1.32870       -6.36304       -0.97793
C          1.04126       -4.88194       -1.07069
C          1.50517       -4.19260       -2.18377
C          1.28772       -2.84702       -2.32585
H          1.68670       -2.32007       -3.17541
H          2.06213       -4.72845       -2.93381
H          2.36180       -6.54038       -1.30301
H          1.97742       -6.78691        1.04545
H         -0.32735       -6.85834        2.06128
H          0.80637       -4.63977        1.93359
C         -0.66454       -2.08872        0.82749
C          0.09503       -1.18567        1.61167
C         -0.51329       -0.55605        2.69634
C         -1.82987       -0.79469        2.99475
C         -2.59581       -1.67483        2.23762
C         -4.02947       -1.90758        2.65837
C         -4.84154       -2.85325        1.75242
C         -3.95782       -3.94127        1.13321
C         -2.82298       -3.29641        0.32732
C         -2.01127       -2.33012        1.15107
H         -2.17781       -4.06144       -0.11930
H         -4.54892       -4.62505        0.50767
H         -5.31110       -2.27482        0.94774
H         -4.53061       -0.93394        2.73012
H         -2.28824       -0.29236        3.82969
H          0.06114        0.14312        3.27739
N          1.40945       -0.89568        1.24289
P          1.88000        0.79572        1.11906
C          2.71030        1.07931       -0.44353
C          2.35521        2.16615       -1.20748
C          2.84577        2.28971       -2.49345
C          3.69353        1.32681       -3.02197
C          4.05128        0.24398       -2.23045
C          3.56590        0.12371       -0.94063
H          3.82054       -0.73130       -0.33420
H          4.70141       -0.51268       -2.63563
C          4.16802        1.42871       -4.42958
H          2.54909        3.12433       -3.10556
H          1.67321        2.90160       -0.81108
C          2.83025        1.36806        2.51785
C          2.95855        0.54539        3.61037
C          3.67080        0.97748        4.71495
C          4.24963        2.23983        4.73011
C          4.11439        3.05139        3.61099
C          3.40208        2.61717        2.50740
H          3.28381        3.24792        1.64047
H          4.56791        4.02780        3.61037
C          5.03418        2.69951        5.90947
H          3.77992        0.33621        5.57278
H          2.50283       -0.43175        3.58917
H          1.70396       -1.31305        0.36692
H          1.30417       -0.24830       -1.83937
C         -0.56341        1.69170       -2.55796
C         -0.05246        1.21923       -3.74437
C          0.11162        2.07597       -4.81824
C         -0.24413        3.41341       -4.71290
C         -0.76296        3.87196       -3.50973
C         -0.92683        3.01163       -2.44154
H         -1.34140        3.36377       -1.51331
H         -1.03610        4.90900       -3.41442
C         -0.03216        4.34614       -5.85405
H          0.52562        1.71117       -5.74268
H          0.22979        0.18165       -3.82252
C         -2.35585       -0.15555       -1.31809
C         -2.57475       -1.07333       -2.31860
C         -3.84740       -1.57618       -2.52862
C         -4.90805       -1.16273       -1.73414
C         -4.66811       -0.23049       -0.73300
C         -3.39844        0.27728       -0.53459
H         -3.22313        1.03834        0.20554
H         -5.48447        0.10601       -0.11708
C         -6.26822       -1.73127       -1.94370
H         -4.02232       -2.30007       -3.30605
H         -1.74584       -1.39218       -2.93103
Cl        -2.11530        2.92478        0.44238
H          0.70062       -6.87957       -1.71368
H         -1.02712       -6.61396        0.47540
H          1.02297       -8.07404        0.34775
H         -0.89877       -4.43431        1.66661
H         -3.53065       -4.56143        1.93105
H         -3.24735       -2.75358       -0.52081
H         -4.02066       -2.30397        3.68090
H         -5.67579       -3.30310        2.30873
H          5.15636        0.98183       -4.54557
H          3.48363        0.91431       -5.10572
H          4.23547        2.46990       -4.74807
H          6.08281        2.41543        5.81168
H          4.98752        3.78428        6.01468
H          4.65090        2.26140        6.83205
H          0.96778        4.78072       -5.81782
H         -0.14080        3.83044       -6.80920
H         -0.75520        5.16276       -5.83508
H         -7.01620       -1.20300       -1.35097
H         -6.56308       -1.65912       -2.99148
H         -6.29660       -2.78363       -1.65733
