105
-153.06940546
Cl        -0.03978        1.96012        3.04463
Pd        -0.61022        1.14320        1.02157
P         -1.24672        0.50637       -1.13365
N         -0.93551       -1.04976       -1.88493
C          0.09386       -1.95731       -1.61709
C          0.34346       -2.46972       -0.31567
C          1.35629       -3.43610       -0.13757
C          1.57618       -4.02138        1.23817
C          2.86561       -4.84477        1.39043
C          3.08237       -5.76070        0.18337
C          3.17300       -4.93632       -1.10850
C          2.09180       -3.89263       -1.23532
C          1.81605       -3.38845       -2.49954
C          0.83615       -2.45070       -2.68991
H          0.63407       -2.07308       -3.67706
H          2.38869       -3.74440       -3.33928
H          4.14807       -4.43842       -1.16218
H          3.98070       -6.37983        0.31838
H          3.72190       -4.16540        1.48627
H          1.57834       -3.20669        1.97069
C         -0.60058       -2.19178        0.79468
C         -0.14324       -1.58551        1.99838
C         -1.02770       -1.49751        3.07844
C         -2.31820       -1.94695        2.97320
C         -2.78826       -2.52856        1.80233
C         -4.21587       -3.02249        1.78118
C         -4.71004       -3.50061        0.40537
C         -3.61056       -4.26153       -0.34030
C         -2.37944       -3.36708       -0.54302
C         -1.92458       -2.66580        0.71330
H         -1.54742       -3.95840       -0.94542
H         -3.98136       -4.64371       -1.30197
H         -5.01899       -2.63664       -0.19571
H         -4.86724       -2.22495        2.16079
H         -2.98797       -1.85233        3.81121
H         -0.69069       -1.03031        3.98713
N          1.12657       -1.00069        2.11103
P          1.55115        0.19400        0.88685
C          2.66598       -0.40111       -0.37418
C          2.53836        0.07661       -1.65385
C          3.43842       -0.31976       -2.62579
C          4.47519       -1.18952       -2.31295
C          4.60782       -1.62935       -1.00227
C          3.70324       -1.23427       -0.03307
H          3.79936       -1.56819        0.98783
H          5.42394       -2.28270       -0.74531
C          5.44952       -1.61647       -3.35434
H          3.33778        0.04319       -3.63427
H          1.73319        0.75277       -1.88314
C          2.38769        1.62371        1.58225
C          3.16778        1.50313        2.70665
C          3.81385        2.61602        3.21376
C          3.69131        3.85066        2.58992
C          2.90104        3.94926        1.45263
C          2.25628        2.83582        0.94604
H          1.64252        2.90870        0.06145
H          2.78963        4.90428        0.96826
C          4.35972        5.05561        3.15441
H          4.41651        2.53226        4.10196
H          3.27262        0.54158        3.18218
H          1.30202       -0.53634        2.99268
H         -1.22440       -0.93565       -2.84804
C         -0.52478        1.84780       -2.08275
C         -0.57584        3.12344       -1.57189
C          0.01373        4.16668       -2.26010
C          0.64574        3.94084       -3.47528
C          0.67630        2.64855       -3.98238
C          0.08570        1.60699       -3.29081
H          0.11950        0.60278       -3.67939
H          1.17222        2.46187       -4.91963
C          1.31255        5.05706       -4.20108
H         -0.01321        5.16423       -1.85594
H         -1.08853        3.29572       -0.63867
C         -3.03042        0.69652       -1.17186
C         -3.61930        1.48955       -2.12792
C         -4.99473        1.63364       -2.14971
C         -5.78748        0.99043       -1.20874
C         -5.17409        0.18546       -0.25900
C         -3.79920        0.03872       -0.24436
H         -3.31627       -0.57665        0.49580
H         -5.77998       -0.31957        0.47361
C         -7.26967        1.12962       -1.23979
H         -5.46112        2.25179       -2.89769
H         -3.00154        1.99606       -2.85196
Cl        -2.50869        2.35302        1.15855
H          3.13412       -5.59729       -1.98391
H          2.84840       -5.42771        2.32214
H          2.24557       -6.46654        0.10770
H          0.70840       -4.64154        1.49221
H         -3.32420       -5.14784        0.23967
H         -2.59804       -2.60914       -1.30396
H         -4.30629       -3.84029        2.50615
H         -5.61111       -4.12161        0.50828
H          5.00829       -1.56756       -4.35088
H          6.33266       -0.97623       -3.34485
H          5.77576       -2.64419       -3.18783
H          4.62264        5.76468        2.36818
H          3.70422        5.56513        3.86193
H          5.27802        4.78772        3.67882
H          2.34719        5.16791       -3.87359
H          1.31719        4.88026       -5.27755
H          0.79999        6.00357       -4.02368
H         -7.56626        2.09249       -1.65802
H         -7.71997        0.34451       -1.84873
H         -7.69175        1.06146       -0.23617
