59
-75.79976155
Cl         1.42445        0.10751        2.43780
P          1.56485       -0.10577       -0.71224
P         -1.69313       -0.10098       -0.85248
C          0.63702        0.36731       -2.24322
H          0.43743        1.43981       -2.20667
H          1.29091        0.19113       -3.10270
C         -0.64490       -0.41355       -2.34289
H         -0.43966       -1.48428       -2.40231
H         -1.22299       -0.14880       -3.23338
C          2.33889       -1.75566       -1.05728
H          1.67646       -2.23731       -1.78844
C          3.13975        0.85739       -0.57983
H          3.52076        0.70271        0.43606
C         -2.87300       -1.47091       -0.44007
H         -2.87769       -1.53735        0.65510
C         -2.91122        1.26020       -1.19326
H         -2.84234        1.46365       -2.26877
C          3.69035       -1.39075       -1.71689
H          4.48693       -1.99206       -1.25911
H          3.69043       -1.69515       -2.77441
C          4.03279        0.12904       -1.60069
H          3.89907        0.61468       -2.57831
H          5.09527        0.27350       -1.35087
C         -4.22031       -0.92740       -0.94241
H         -4.36259       -1.24134       -1.98584
H         -5.05056       -1.38223       -0.38052
C         -4.27039        0.62039       -0.85294
H         -4.55155        0.91468        0.16759
H         -5.05956        1.02649       -1.50369
C          2.46178       -2.63423        0.18959
H          2.76643       -3.64476       -0.11712
H          1.46797       -2.75595        0.63996
C          2.96194        2.35003       -0.83520
H          3.94636        2.80248       -1.01960
H          2.40325        2.49046       -1.76894
C         -2.48253       -2.81717       -1.03749
H         -3.31611       -3.52198       -0.91089
H         -2.36528       -2.70451       -2.12294
C         -2.63268        2.53450       -0.40266
H         -3.49577        3.20814       -0.49745
H         -2.58007        2.28356        0.66429
C          3.42810       -2.11667        1.24482
H          3.46133       -2.76909        2.12048
H          3.13944       -1.12688        1.59491
H          4.44714       -2.03766        0.86412
C          2.27351        3.06560        0.31732
H          2.86912        3.00513        1.23018
H          1.30745        2.61546        0.54503
H          2.10414        4.12340        0.10391
C         -1.21969       -3.39077       -0.41719
H         -0.38309       -2.70195       -0.52931
H         -0.92982       -4.34043       -0.87254
H         -1.34799       -3.56297        0.65322
C         -1.36801        3.25348       -0.83835
H         -0.49252        2.62107       -0.70059
H         -1.40889        3.52325       -1.89534
H         -1.19993        4.17082       -0.26942
Cl        -1.90726        0.49816        2.18966
Pd        -0.14266        0.17058        0.84246
