58
-89.86583817
P          1.70621        0.35892        0.76662
C          2.96316        1.59651        0.40203
C          2.68349        2.66331       -0.42171
C          3.65318        3.61786       -0.66915
C          4.89682        3.50438       -0.08056
C          5.17012        2.44271        0.75860
C          4.19759        1.48964        1.00367
H          4.39441        0.66533        1.67103
H          1.70943        2.74378       -0.87618
C          2.25269       -1.30797        0.36055
C          3.53210       -1.56022       -0.07955
C          3.90933       -2.85210       -0.39827
C          2.99979       -3.88477       -0.28121
C          1.71284       -3.62686        0.14623
C          1.34196       -2.33393        0.46504
H          0.32862       -2.11403        0.75205
H          4.22745       -0.74563       -0.19116
C          1.38341        0.49560        2.57146
C          0.16697       -0.25862        3.07585
C         -1.15315        0.35235        2.63318
P         -1.63456       -0.02202        0.89814
C         -1.98367       -1.77284        0.66917
C         -2.05997       -2.64104        1.73522
C         -2.29154       -3.98599        1.51035
C         -2.45004       -4.45336        0.22063
C         -2.38364       -3.57878       -0.84525
C         -2.15117       -2.23587       -0.61599
H         -2.09598       -1.53654       -1.43457
H         -1.94122       -2.27013        2.73978
C         -3.09756        0.96154        0.56314
C         -4.32362        0.35258        0.42454
C         -5.44401        1.11765        0.15512
C         -5.32599        2.48755        0.02546
C         -4.09274        3.09359        0.16429
C         -2.97377        2.32585        0.43448
H         -2.00207        2.78315        0.53741
H         -4.39780       -0.71853        0.52143
Pd        -0.06042        0.44453       -0.74499
Cl         1.47735        0.66281       -2.36744
Cl        -1.78373        0.62014       -2.18143
H         -1.98409        0.00347        3.25122
H         -1.12624        1.43875        2.73613
H          0.22104       -1.30734        2.75989
H          0.19810       -0.29116        4.17620
H          2.29542        0.14767        3.06268
H          1.29278        1.56027        2.79578
H          3.43766        4.44732       -1.32249
H          6.13820        2.35688        1.22420
H          4.91067       -3.05082       -0.74347
H          0.99397       -4.42614        0.22095
H         -2.34765       -4.66872        2.34228
H         -2.50987       -3.94006       -1.85257
H         -6.40559        0.64433        0.04286
H         -4.00005        4.16194        0.05820
H          5.65388        4.24680       -0.27400
H          3.29202       -4.89121       -0.53294
H         -2.62913       -5.50178        0.04607
H         -6.19763        3.08461       -0.18778
