171
-217.83527475
P         -1.49143        0.31726       -0.28034
P          1.64520       -0.79300        0.32428
C         -0.52736        0.94988       -1.66782
C          0.82423       -1.85106       -0.88846
C          0.25011        0.05755       -2.39601
C          1.03336        0.54061       -3.46190
C          0.96437        1.88441       -3.79048
C          0.17265        2.75292       -3.06880
C         -0.56534        2.28221       -2.00057
C          0.75094       -3.17803       -0.53597
C          0.09343       -4.08059       -1.34950
C         -0.50461       -3.63898       -2.51001
C         -0.46022       -2.30374       -2.87358
C          0.22583       -1.38755       -2.05430
Cl         0.89044       -0.56895        3.47528
Cl        -2.23199       -1.14188        2.58801
C         -1.15533       -1.87012       -4.11685
C          1.91303       -0.37147       -4.24358
H          0.13398        3.79623       -3.33598
H         -1.16577        2.96067       -1.41962
H          1.20578       -3.50445        0.38778
H          0.04217       -5.12108       -1.07330
H          1.53790        2.24871       -4.62567
H         -1.02676       -4.33432       -3.14547
C         -4.55103       -2.58386       -1.93648
C         -4.36915       -1.36008       -2.56846
C         -3.42616       -0.48998       -2.03371
C         -2.71147       -0.83517       -0.91272
C         -2.89841       -2.05318       -0.31038
C         -3.81944       -2.95965       -0.81719
H         -5.29370       -3.25997       -2.31768
H         -3.22637        0.45711       -2.50308
H         -2.32611       -2.28696        0.56837
C         -3.80847        3.75761        1.61818
C         -2.99707        2.98593        2.43881
C         -2.28576        1.94597        1.85664
C         -2.38717        1.67972        0.51128
C         -3.21494        2.44374       -0.27495
C         -3.93030        3.50803        0.25720
H         -4.36805        4.56051        2.05983
H         -1.66123        1.32637        2.47045
H         -3.30619        2.21271       -1.32186
C          5.45835       -2.90629        1.55488
C          5.10140       -2.86674        0.21288
C          3.91145       -2.23246       -0.12227
C          3.12717       -1.66158        0.85038
C          3.49684       -1.71128        2.16985
C          4.67355       -2.34051        2.55192
H          6.37642       -3.39125        1.83175
H          3.58263       -2.18060       -1.14646
H          2.84810       -1.26073        2.89764
C          3.08083        3.34379       -0.85002
C          1.99507        3.25381        0.01201
C          1.54918        1.98585        0.36463
C          2.15476        0.86514       -0.15569
C          3.22765        0.97649       -1.00547
C          3.72011        2.22420       -1.36529
H          3.45209        4.31664       -1.11472
H          0.72399        1.86793        1.04292
H          3.68895        0.07766       -1.37459
Pd        -0.31018       -0.52991        1.58741
C         -5.27421       -2.11403       -4.80142
C         -5.24332       -0.96965       -3.76945
C         -4.70720        0.29387       -4.47227
C         -6.67077       -0.68959       -3.26810
H         -5.71517       -3.01855       -4.38526
H         -5.86508       -1.83325       -5.67318
H         -4.26886       -2.35598       -5.14370
H         -5.30485        0.52962       -5.35269
H         -4.74459        1.16024       -3.81276
H         -3.67694        0.15256       -4.79822
H         -6.67016        0.11727       -2.53536
H         -7.32492       -0.39996       -4.09027
H         -7.09778       -1.57201       -2.79227
C         -5.50539       -4.40582        0.34138
C         -4.05429       -4.32937       -0.16595
C         -3.10516       -4.56003        1.02715
C         -3.80557       -5.43816       -1.20488
H         -6.21654       -4.29564       -0.47650
H         -5.69947       -5.36215        0.82667
H         -5.70130       -3.61400        1.06416
H         -2.06254       -4.50894        0.71426
H         -3.26767       -3.81724        1.80782
H         -3.26989       -5.54261        1.46874
H         -4.48413       -5.34825       -2.05222
H         -2.78606       -5.38621       -1.58546
H         -3.95090       -6.42454       -0.76479
C         -4.34480        2.99984        4.54641
C         -2.94866        3.25513        3.95053
C         -2.53451        4.71556        4.20831
C         -1.93805        2.33200        4.66175
H         -4.65930        1.97311        4.36007
H         -4.34598        3.16367        5.62385
H         -5.08879        3.66269        4.10592
H         -3.23616        5.41521        3.75614
H         -2.49861        4.92609        5.27706
H         -1.54683        4.91575        3.79539
H         -1.90075        2.54891        5.72904
H         -2.21548        1.28399        4.55044
H         -0.93308        2.46677        4.26261
C         -5.91442        3.44813       -1.27175
C         -4.82005        4.34840       -0.66894
C         -3.95611        4.94257       -1.79795
C         -5.49776        5.50679        0.08750
H         -6.52418        3.00430       -0.48506
H         -6.57147        4.01789       -1.92856
H         -5.48162        2.63660       -1.85519
H         -3.50421        4.16009       -2.40648
H         -4.55424        5.57151       -2.45705
H         -3.15179        5.55243       -1.38664
H         -6.11435        6.10066       -0.58716
H         -6.14482        5.13265        0.88061
H         -4.75666        6.17247        0.52971
C          5.43093       -3.34583       -2.26483
C          6.01674       -3.49600       -0.84653
C          6.18715       -4.99631       -0.54589
C          7.38861       -2.79785       -0.81015
H          5.31059       -2.29590       -2.53110
H          6.08949       -3.79950       -3.00535
H          4.46042       -3.83572       -2.34248
H          6.81693       -5.47531       -1.29541
H          6.64873       -5.15562        0.42789
H          5.22075       -5.50019       -0.54467
H          7.86882       -2.91881        0.16016
H          8.05639       -3.20986       -1.56656
H          7.28195       -1.72990       -0.99954
C          6.47867       -1.71021        4.17400
C          5.12086       -2.41923        4.01852
C          5.25466       -3.89663        4.43098
C          4.10522       -1.74087        4.95926
H          7.24632       -2.18647        3.56522
H          6.40549       -0.66770        3.86479
H          6.81397       -1.73234        5.21077
H          4.30621       -4.41829        4.30420
H          6.00240       -4.41054        3.82811
H          5.55140       -3.98458        5.47597
H          3.99044       -0.68458        4.71718
H          3.12773       -2.21785        4.89133
H          4.43337       -1.80752        5.99637
C          0.96992        5.47999       -0.56880
C          1.36986        4.53610        0.58121
C          2.39919        5.23272        1.48878
C          0.10855        4.23587        1.41018
H          0.24443        5.00183       -1.22511
H          0.51823        6.39338       -0.18207
H          1.83112        5.76594       -1.17090
H          1.98497        6.14256        1.92287
H          2.69932        4.57515        2.30447
H          3.29505        5.50463        0.93149
H         -0.33856        5.15886        1.77804
H         -0.64051        3.72655        0.80633
H          0.34139        3.61303        2.27327
C          6.03322        3.18061       -1.51168
C          4.95124        2.38718       -2.26803
C          4.55153        3.14437       -3.54637
C          5.54562        1.02238       -2.66960
H          6.93334        3.28716       -2.11689
H          5.68574        4.18035       -1.25417
H          6.30634        2.67230       -0.58708
H          4.14123        4.12623       -3.31305
H          5.41167        3.28735       -4.20021
H          3.79690        2.58916       -4.10130
H          4.82422        0.42779       -3.22880
H          6.42399        1.15322       -3.30141
H          5.85261        0.45566       -1.79071
H         -0.61084       -2.19802       -5.00344
H          1.39113       -0.76243       -5.11784
H         -1.25686       -0.78527       -4.16320
H         -2.15813       -2.29583       -4.16311
H          2.24078       -1.21796       -3.63799
H          2.80598        0.14832       -4.59351
