59
-75.80570441
Cl         1.72341        0.45054        2.28268
P          1.62280       -0.08789       -0.84802
P         -1.59458       -0.14362       -0.76458
C          0.59144        0.25527       -2.34134
H          0.32752        1.31555       -2.35259
H          1.19109        0.05664       -3.23522
C         -0.64209       -0.59912       -2.27667
H         -0.37790       -1.65802       -2.21182
H         -1.28877       -0.46934       -3.15019
C          2.63387       -1.60815       -1.20194
H          2.49047       -1.77512       -2.27825
C          3.00150        1.13427       -0.61963
H          3.08985        1.28902        0.46244
C         -3.02339       -1.27577       -0.45575
H         -3.23600       -1.20878        0.61850
C         -2.54422        1.41647       -1.08872
H         -2.17999        1.80680       -2.04665
C          4.08221       -1.15332       -0.95303
H          4.37890       -1.41923        0.06873
H          4.77407       -1.70209       -1.60983
C          4.23435        0.37855       -1.14411
H          4.36066        0.60528       -2.21176
H          5.14775        0.74836       -0.65367
C         -4.14445       -0.59636       -1.25952
H         -4.08392       -0.93473       -2.30367
H         -5.13064       -0.92629       -0.89751
C         -4.01429        0.95136       -1.19976
H         -4.56624        1.32121       -0.32518
H         -4.50118        1.41792       -2.06885
C          2.20045       -2.85574       -0.43286
H          2.78655       -3.71378       -0.79042
H          1.16314       -3.08880       -0.70444
C          2.75308        2.47002       -1.31075
H          3.68365        3.05458       -1.30425
H          2.53651        2.28752       -2.37119
C         -2.73767       -2.72152       -0.83847
H         -3.67708       -3.29163       -0.82953
H         -2.39184       -2.75363       -1.87953
C         -2.30965        2.42988        0.02550
H         -2.69729        2.01462        0.96563
H         -1.23156        2.54462        0.19361
C          2.32570       -2.75702        1.08059
H          1.91140       -3.63539        1.58113
H          1.80054       -1.88650        1.47048
H          3.36525       -2.67058        1.39922
C          1.63482        3.27208       -0.66582
H          0.69657        2.71911       -0.68065
H          1.46364        4.22383       -1.17388
H          1.85834        3.49136        0.37999
C         -1.72209       -3.37360        0.08642
H         -1.46445       -4.38688       -0.22985
H         -2.10044       -3.43263        1.10878
H         -0.80088       -2.79230        0.12699
C         -2.93912        3.78579       -0.25741
H         -2.75832        4.49760        0.55125
H         -2.53798        4.22161       -1.17444
H         -4.01974        3.70423       -0.38653
Cl        -1.61637       -0.00640        2.36657
Pd         0.04518        0.01904        0.86170
