111
-148.54869310
P         -2.34434        2.35804       -0.19133
P         -0.02285        0.30747        0.46146
C         -1.77780        2.15989        1.51642
C         -0.78798        1.24492        1.79924
C         -2.40060        4.14597       -0.65972
C         -1.53422        4.40907       -1.87176
C         -2.33949        2.90478        2.53352
H         -3.09580        3.63681        2.30189
C         -1.92429        2.71069        3.83960
H         -2.36376        3.29025        4.63496
C         -0.95373        1.76974        4.12511
H         -0.63743        1.61078        5.14291
C         -0.38527        1.03289        3.10161
H          0.36463        0.28575        3.31025
Pd        -1.20936        0.80604       -1.47531
Cl        -2.34337        1.54550       -3.26278
Cl        -0.11879       -0.83712       -2.55171
C         -3.90415        4.40775       -0.88929
C         -4.11772        1.88950       -0.46375
H         -1.54014        5.46629       -2.14783
H         -0.49831        4.11086       -1.69232
H         -1.89490        3.84261       -2.73175
H         -4.02790        5.15310       -1.68833
H         -4.34656        4.86257        0.00913
H         -4.10955        0.98948       -1.09389
C         -4.67440        3.10254       -1.23632
C         -4.83523        1.61235        0.84043
H         -2.02745        4.70899        0.20674
H         -5.74726        3.21532       -1.02211
H         -4.60480        2.91756       -2.31845
H         -5.85951        1.27258        0.66981
H         -4.31802        0.84925        1.42631
H         -4.88878        2.51500        1.45067
C         -1.16439       -4.07134        0.92730
C          0.19882       -3.73462        0.72442
C          0.53617       -2.39546        0.61994
C         -0.42935       -1.42386        0.64034
C         -1.75845       -1.74931        0.72196
C         -2.16370       -3.07006        0.82339
O         -1.52268       -5.40161        1.27244
C          1.30403       -4.79802        0.62975
H          1.56288       -2.09129        0.51878
H         -2.47992       -0.94978        0.70431
C         -3.66634       -3.39043        0.82883
C          4.44742        1.11653       -0.01437
C          3.74159        0.38539       -1.00254
C          2.38428        0.18587       -0.82220
C          1.73936        0.61941        0.30609
C          2.43846        1.24581        1.30533
C          3.80019        1.47345        1.19598
O          5.78916        1.51884       -0.25030
C          4.41391       -0.15451       -2.27483
H          1.79504       -0.30029       -1.57880
H          1.90103        1.57198        2.17673
C          4.54678        2.11978        2.37430
C          1.86476       -5.07733        2.03196
C          0.76791       -6.09895        0.00453
C          2.45512       -4.30566       -0.27591
C         -3.94182       -4.78323        0.23360
C         -4.19595       -3.31527        2.26861
C         -4.43912       -2.37156       -0.03987
C         -1.55094       -5.64566        2.67297
H          2.27264       -4.16768        2.47211
H          1.09017       -5.44952        2.69839
H          2.66093       -5.82035        1.99309
H          0.00697       -6.55614        0.63229
H          0.32246       -5.90055       -0.96975
H          1.56653       -6.82819       -0.12915
H          2.99626       -3.47535        0.17535
H          3.17860       -5.10164       -0.45070
H          2.07167       -3.98322       -1.24359
H         -5.01205       -4.97918        0.17302
H         -3.52509       -4.85993       -0.77011
H         -3.49778       -5.56896        0.83953
H         -5.26388       -3.52906        2.30372
H         -3.68800       -4.02998        2.91224
H         -4.03647       -2.32139        2.68632
H         -5.48219       -2.66743       -0.14911
H         -4.43442       -1.37802        0.40413
H         -4.00361       -2.30321       -1.03646
H         -2.55707       -5.93627        2.97451
H         -0.87233       -6.46377        2.91415
H         -1.25185       -4.75132        3.22107
C          5.91373        2.79209       -0.87164
C          5.87608       -0.55228       -2.00360
C          3.69070       -1.42329       -2.78071
C          4.34851        0.91478       -3.37579
C          5.99988        1.61706        2.45325
C          4.52196        3.64766        2.21725
C          3.87205        1.75246        3.71601
H          6.47577        0.30845       -1.71866
H          5.93154       -1.28038       -1.19499
H          6.33289       -0.99331       -2.88920
H          2.68712       -1.20159       -3.14030
H          4.23464       -1.87385       -3.61050
H          3.61605       -2.16620       -1.98805
H          4.80998        0.55688       -4.29574
H          3.31383        1.17617       -3.59665
H          4.86208        1.82429       -3.07392
H          6.02642        0.53010        2.52255
H          6.56959        1.90881        1.57463
H          6.50898        2.02526        3.32600
H          3.49645        4.01547        2.19149
H          5.03422        4.13374        3.04719
H          5.00754        3.95781        1.29524
H          3.75613        0.67290        3.80889
H          2.89024        2.21333        3.81403
H          4.47180        2.09801        4.55776
H          4.92947        3.22762       -1.04825
H          6.49605        3.45564       -0.23256
H          6.44011        2.68636       -1.82008
