171
-217.83638323
P         -1.53021        0.23063       -0.18870
P          1.71429       -0.67246        0.23235
C         -0.72015        0.81969       -1.68692
C          0.86409       -1.84754       -0.84597
C          0.05837       -0.07275       -2.41367
C          0.72581        0.38141       -3.56740
C          0.54245        1.69199       -3.97677
C         -0.25269        2.55786       -3.25534
C         -0.87619        2.11927       -2.10357
C          0.89471       -3.15131       -0.40978
C          0.22500       -4.13705       -1.10868
C         -0.48992       -3.80246       -2.23836
C         -0.55040       -2.49302       -2.68403
C          0.14737       -1.49162       -1.98284
Cl         1.18916       -0.24223        3.41204
Cl        -1.95501       -1.00188        2.82760
C         -1.36779       -2.17707       -3.88784
C          1.60065       -0.52935       -4.35594
H         -0.38428        3.57402       -3.58912
H         -1.48254        2.79576       -1.52599
H          1.44020       -3.39384        0.49040
H          0.25494       -5.15870       -0.76686
H          1.02725        2.03165       -4.87610
H         -1.02274       -4.56309       -2.78380
C         -4.53993       -2.93807       -1.37806
C         -3.70045       -3.19110       -0.30079
C         -2.79740       -2.20185        0.06358
C         -2.72951       -1.02455       -0.63704
C         -3.54965       -0.80147       -1.71599
C         -4.48152       -1.75631       -2.10617
H         -5.26913       -3.67909       -1.64869
H         -2.14575       -2.33838        0.90697
H         -3.44157        0.11620       -2.26696
C         -3.87307        3.64983        1.71125
C         -4.12999        3.27867        0.39753
C         -3.39555        2.22836       -0.13628
C         -2.42374        1.59505        0.59930
C         -2.18460        1.98442        1.89632
C         -2.90983        3.01286        2.48208
H         -4.44405        4.44239        2.15697
H         -3.58753        1.90313       -1.14377
H         -1.43681        1.47212        2.47050
C          5.70072       -2.53549        1.31107
C          5.24994       -2.59748       -0.00151
C          4.01214       -2.03522       -0.28839
C          3.27229       -1.43475        0.70109
C          3.73474       -1.38386        1.99095
C          4.96226       -1.93879        2.32530
H          6.65634       -2.96462        1.55054
H          3.61014       -2.06538       -1.28701
H          3.11826       -0.91436        2.73458
C          2.83191        3.42693       -1.34557
C          1.82096        3.35034       -0.39574
C          1.47194        2.09267        0.08167
C          2.09754        0.96678       -0.40223
C          3.09504        1.06489       -1.34088
C          3.48956        2.30382       -1.82877
H          3.12937        4.39369       -1.70781
H          0.70739        1.98543        0.82943
H          3.57507        0.16405       -1.67998
Pd        -0.14902       -0.44982        1.61729
C         -5.19712       -4.64340        1.08781
C         -3.79810       -4.52150        0.45799
C         -2.74526       -4.61223        1.58086
C         -3.56343       -5.68579       -0.52188
H         -5.38415       -3.81454        1.77030
H         -5.97602       -4.63197        0.32624
H         -5.29267       -5.57225        1.64981
H         -2.81416       -5.56794        2.10000
H         -1.73573       -4.52623        1.17951
H         -2.89063       -3.82509        2.32037
H         -2.58256       -5.60296       -0.98883
H         -3.61129       -6.64489       -0.00654
H         -4.31128       -5.69545       -1.31381
C         -5.08331       -0.25532       -4.07076
C         -5.47164       -1.50332       -3.25267
C         -6.87251       -1.28623       -2.65415
C         -5.50057       -2.71247       -4.20783
H         -5.76549       -0.11491       -4.90911
H         -5.12679        0.64687       -3.46144
H         -4.07573       -0.35066       -4.47496
H         -7.19828       -2.16218       -2.09382
H         -6.87260       -0.43546       -1.97292
H         -7.60700       -1.09404       -3.43605
H         -4.51073       -2.90724       -4.61849
H         -5.83884       -3.61560       -3.70209
H         -6.17818       -2.53081       -5.04197
C         -5.87255        5.13031        0.27198
C         -5.18998        3.96736       -0.47296
C         -6.26539        2.93827       -0.86827
C         -4.51713        4.52782       -1.74065
H         -6.38871        4.77613        1.16408
H         -5.14523        5.88568        0.56915
H         -6.61197        5.61611       -0.36464
H         -6.73879        2.51657        0.01815
H         -7.04116        3.39873       -1.47973
H         -5.83516        2.11621       -1.43878
H         -5.23970        5.05014       -2.36740
H         -3.72666        5.23076       -1.47794
H         -4.07229        3.73335       -2.33881
C         -1.56047        2.61960        4.60741
C         -2.71596        3.40577        3.95464
C         -4.01147        3.09587        4.72627
C         -2.39895        4.90892        4.05786
H         -0.61940        2.79792        4.08798
H         -1.42586        2.92108        5.64593
H         -1.75992        1.54821        4.60098
H         -4.25822        2.03694        4.65134
H         -3.90680        3.34486        5.78210
H         -4.85226        3.66407        4.32988
H         -1.48297        5.14881        3.51993
H         -3.20203        5.51559        3.64155
H         -2.26327        5.20657        5.09749
C          6.37186       -4.72812       -0.70229
C          6.11587       -3.25843       -1.08293
C          7.45520       -2.50640       -1.18944
C          5.42680       -3.22435       -2.46181
H          5.43072       -5.26818       -0.60025
H          6.96854       -5.23010       -1.46375
H          6.90617       -4.80538        0.24387
H          8.00617       -2.54403       -0.25042
H          8.08640       -2.94122       -1.96425
H          7.28915       -1.45830       -1.43789
H          5.24205       -2.19960       -2.78351
H          6.05164       -3.69893       -3.21828
H          4.47579       -3.75628       -2.43857
C          5.73536       -3.34954        4.24918
C          5.51187       -1.90727        3.75854
C          4.53544       -1.20936        4.72610
C          6.84624       -1.13934        3.77423
H          6.10692       -3.35995        5.27371
H          4.80303       -3.91328        4.22234
H          6.46048       -3.87231        3.62662
H          4.93659       -1.19725        5.73934
H          4.35965       -0.17580        4.42882
H          3.57668       -1.72646        4.75721
H          7.58963       -1.62374        3.14221
H          6.70841       -0.12181        3.40896
H          7.25250       -1.08365        4.78402
C          0.64582        5.48020       -1.05057
C          1.17474        4.64134        0.12835
C          2.23050        5.44777        0.90525
C         -0.00677        4.34574        1.06844
H          0.17767        6.39788       -0.69477
H          1.44556        5.76055       -1.73449
H         -0.10019        4.92310       -1.61515
H          1.80355        6.36740        1.30503
H          2.62104        4.86561        1.73976
H          3.06921        5.71804        0.26448
H         -0.47339        5.27188        1.40252
H         -0.76974        3.75861        0.56014
H          0.31965        3.80043        1.95327
C          5.26706        1.09601       -3.19270
C          4.63542        2.45732       -2.83902
C          5.73051        3.35389       -2.23148
C          4.09665        3.09924       -4.12945
H          4.53561        0.42835       -3.64644
H          6.08365        1.22097       -3.90363
H          5.67338        0.61090       -2.30532
H          5.35197        4.35209       -2.01500
H          6.10308        2.92758       -1.30020
H          6.57258        3.45876       -2.91541
H          3.32798        2.47210       -4.57843
H          3.65838        4.07691       -3.93225
H          4.89301        3.23071       -4.86179
H         -2.34562       -2.65510       -3.82265
H          2.03642       -1.30340       -3.72216
H         -0.88001       -2.53416       -4.79591
H         -1.53337       -1.10413       -3.99146
H          2.42238        0.01830       -4.81935
H          1.03741       -1.02004       -5.15063
