75
-122.81707629
P          1.88876       -0.55373       -0.01964
C          3.24506       -1.24114       -0.98237
C          4.48126       -1.33494       -0.38413
C          5.54534       -1.87614       -1.08311
C          5.36074       -2.32687       -2.37498
C          4.11618       -2.24145       -2.96669
C          3.05479       -1.69990       -2.26537
H          2.07978       -1.62595       -2.71850
H          3.97136       -2.59388       -3.97472
H          6.18874       -2.74802       -2.92156
H          6.51492       -1.94758       -0.61830
H          4.60568       -0.99153        0.63117
C          1.72197       -1.57982        1.44467
C          1.76292       -1.02119        2.70139
C          1.72123       -1.83607        3.81752
C          1.63886       -3.20607        3.66549
C          1.59345       -3.76201        2.40224
C          1.63764       -2.94412        1.28734
H          1.62074       -3.36294        0.29329
H          1.52519       -4.83085        2.28380
H          1.60244       -3.84230        4.53465
H          1.74884       -1.40141        4.80313
H          1.82249        0.04993        2.80323
C          2.23248        1.15244        0.43418
C          3.39755        1.80330        0.10248
C          3.56414        3.14836        0.40084
C          2.51412        3.83213        1.01203
C          1.33619        3.19500        1.33394
C          1.19094        1.82679        1.05397
O          0.00117        1.14167        1.35178
C         -1.19177        1.81895        1.04799
C         -1.34457        3.18781        1.32044
C         -2.52153        3.81894        0.98379
C         -3.56391        3.12739        0.36830
C         -3.39218        1.77993        0.08422
C         -2.22840        1.13442        0.43087
P         -1.87579       -0.57883        0.00777
C         -1.72589       -1.57662        1.49609
C         -1.58578       -0.98649        2.73110
C         -1.55989       -1.76958        3.87001
C         -1.67089       -3.14169        3.76325
C         -1.80287       -3.73141        2.52171
C         -1.83258       -2.94415        1.38453
H         -1.95328       -3.38822        0.40891
H         -1.88540       -4.80251        2.43768
H         -1.64635       -3.75394        4.64989
H         -1.44651       -1.30923        4.83767
H         -1.48621        0.08403        2.79782
C         -3.21725       -1.29161       -0.95784
C         -4.47329       -1.33492       -0.39632
C         -5.52304       -1.89795       -1.09962
C         -5.30433       -2.42224       -2.35795
C         -4.03971       -2.38973       -2.91106
C         -2.99257       -1.82646       -2.20535
H         -2.00125       -1.79626       -2.62736
H         -3.86795       -2.80078       -3.89230
H         -6.12122       -2.86020       -2.90800
H         -6.50819       -1.92928       -0.66403
H         -4.62448       -0.93731        0.59525
Pd        -0.00555       -0.10784       -1.35768
Cl        -1.55276        0.83944       -2.71745
Cl         1.51317        0.93154       -2.68407
H         -4.16487        1.24141       -0.43525
C         -4.81028        3.83153       -0.03418
H         -5.67233        3.16535        0.02004
H         -4.73235        4.19876       -1.05823
H         -5.00880        4.68450        0.61602
H         -2.62873        4.86915        1.19066
S         -0.01018        4.06918        2.08645
H          2.61585        4.88140        1.22632
C          4.81201        3.85940        0.01564
H          4.17537        1.27022       -0.41526
H          5.67329        3.19130        0.05697
H          4.73625        4.24867       -1.00040
H          5.01027        4.69791        0.68445
