105
-153.06273755
Cl         0.06436        1.95585        3.07705
Pd        -0.42645        1.35587        0.96025
P         -1.05885        0.54479       -1.15473
N         -0.51978       -0.90838       -1.99022
C          0.28982       -1.97580       -1.60903
C          0.34449       -2.47299       -0.28299
C          1.22474       -3.53555        0.01728
C          1.25426       -4.08628        1.42447
C          2.42813       -5.03299        1.72377
C          2.65986       -6.00936        0.56790
C          2.96133       -5.24367       -0.72799
C          2.00363       -4.10951       -0.99187
C          1.89447       -3.63386       -2.29189
C          1.05357       -2.59658       -2.59622
H          0.99578       -2.22506       -3.60456
H          2.49494       -4.08297       -3.06486
H          3.97949       -4.83833       -0.68987
H          3.46928       -6.71401        0.80627
H          3.33866       -4.44214        1.88524
H          1.27812       -3.24784        2.12929
C         -0.66391       -2.06435        0.72717
C         -0.24478       -1.46647        1.94759
C         -1.17809       -1.32968        2.97914
C         -2.46980       -1.75962        2.82476
C         -2.89963       -2.34506        1.64030
C         -4.32167       -2.84855        1.57588
C         -4.60603       -3.78918        0.39481
C         -3.94473       -3.27544       -0.88633
C         -2.42402       -3.15204       -0.70686
C         -2.00238       -2.47997        0.57789
H         -1.96257       -4.14576       -0.74741
H         -4.36151       -2.29335       -1.14132
H         -5.68809       -3.91684        0.24882
H         -4.99734       -1.98764        1.53325
H         -3.17156       -1.64771        3.63393
H         -0.86968       -0.86382        3.89857
N          1.05895       -0.98455        2.14130
P          1.64570        0.24134        1.02032
C          2.61906       -0.31124       -0.36687
C          2.44848        0.31893       -1.57463
C          3.23577       -0.04460       -2.65190
C          4.19997       -1.03523       -2.51760
C          4.37694       -1.63473       -1.27712
C          3.58683       -1.27172       -0.20120
H          3.71546       -1.73315        0.76507
H          5.13406       -2.39105       -1.16026
C          5.05215       -1.42525       -3.67425
H          3.10240        0.43760       -3.60505
H          1.69291        1.08103       -1.66937
C          2.60599        1.52086        1.83447
C          3.32395        1.22917        2.96920
C          4.06564        2.22134        3.58474
C          4.08954        3.50980        3.06756
C          3.37265        3.77797        1.90917
C          2.63242        2.78480        1.29383
H          2.07231        2.99070        0.39482
H          3.39626        4.77029        1.49226
C          4.90298        4.57384        3.71840
H          4.63144        1.99978        4.47351
H          3.30844        0.22710        3.36632
H          1.21463       -0.56275        3.04779
H         -0.77982       -0.82553       -2.96525
C         -0.65016        1.95709       -2.19834
C         -1.03255        3.22256       -1.82291
C         -0.71450        4.30914       -2.61466
C         -0.00196        4.13845       -3.79318
C          0.36631        2.85365       -4.16727
C          0.04270        1.76972       -3.37207
H          0.34273        0.77697       -3.66158
H          0.90881        2.70728       -5.08571
C          0.32347        5.30498       -4.65972
H         -1.01828        5.29924       -2.32039
H         -1.57855        3.35522       -0.90442
C         -2.85254        0.45562       -1.12609
C         -3.50700        0.55856       -2.33106
C         -4.88871        0.49515       -2.37417
C         -5.62408        0.33057       -1.20859
C         -4.94615        0.24117       -0.00131
C         -3.56494        0.28583        0.03613
H         -3.03705        0.20036        0.97233
H         -5.50896        0.14751        0.91149
C         -7.11191        0.29100       -1.24511
H         -5.40428        0.58018       -3.31543
H         -2.93357        0.69359       -3.23513
Cl        -2.29195        2.61757        1.01494
H          2.94993       -5.92829       -1.58582
H          2.26081       -5.57702        2.66412
H          1.76296       -6.62572        0.42703
H          0.30508       -4.60152        1.61364
H         -4.18662       -3.92651       -1.73830
H         -2.00223       -2.59706       -1.55196
H         -4.55696       -3.35256        2.52216
H         -4.22002       -4.79038        0.62458
H          5.96396       -0.82721       -3.70317
H          5.33952       -2.47597       -3.61364
H          4.52423       -1.28137       -4.61805
H          4.98468        4.40503        4.79303
H          5.91156        4.59895        3.30357
H          4.45370        5.55706        3.57191
H          0.45311        6.21163       -4.06701
H          1.24785        5.13783       -5.21438
H         -0.47433        5.48571       -5.38139
H         -7.47299       -0.09232       -2.20049
H         -7.50683       -0.35464       -0.45932
H         -7.52903        1.28880       -1.10284
