171
-217.84464296
P         -1.60634        0.38747       -0.34890
P          1.58806       -0.44950       -0.31104
C         -0.86623        1.29947       -1.70684
C          0.85399       -1.43285       -1.62394
C         -0.09382        0.64032       -2.65606
C          0.53341        1.39797       -3.66379
C          0.34173        2.76928       -3.69775
C         -0.44416        3.40123       -2.75735
C         -1.04237        2.66054       -1.75694
C          1.03131       -2.79454       -1.58725
C          0.42162       -3.60085       -2.52786
C         -0.38059       -3.03324       -3.49500
C         -0.57339       -1.66281       -3.54962
C          0.06977       -0.83840       -2.60644
Cl         1.59155        0.36034        2.82687
Cl        -1.59266       -0.52938        2.85096
C         -1.45680       -1.09216       -4.60352
C          1.38011        0.74957       -4.70263
H         -0.59042        4.46804       -2.80187
H         -1.65165        3.14620       -1.01204
H          1.64870       -3.23047       -0.81877
H          0.56785       -4.66824       -2.50073
H          0.81804        3.34377       -4.47428
H         -0.87239       -3.65840       -4.22114
C         -3.94020       -3.28054       -1.58314
C         -2.93153       -3.41368       -0.63756
C         -2.22397       -2.27327       -0.28046
C         -2.50466       -1.06811       -0.87374
C         -3.49268       -0.95513       -1.82075
C         -4.23924       -2.06779       -2.19159
H         -4.52555       -4.14464       -1.83785
H         -1.45648       -2.31147        0.47276
H         -3.68193        0.01166       -2.25544
C         -4.28692        3.02142        2.19295
C         -4.86201        1.99837        1.44915
C         -4.02278        1.20857        0.67430
C         -2.67280        1.45269        0.63618
C         -2.12317        2.47191        1.37371
C         -2.91902        3.26763        2.18699
H         -4.92773        3.63664        2.79588
H         -4.41553        0.38855        0.10057
H         -1.06111        2.63699        1.32054
C          4.46507       -2.84694        2.25047
C          3.11257       -3.16906        2.28829
C          2.24864       -2.44974        1.47291
C          2.72113       -1.43770        0.67569
C          4.05656       -1.12316        0.66299
C          4.95991       -1.82523        1.44794
H          5.14797       -3.39936        2.86643
H          1.19383       -2.66626        1.47294
H          4.39787       -0.31094        0.04527
C          3.84051        3.26359       -1.56547
C          2.88741        3.36297       -0.55896
C          2.18374        2.21604       -0.21922
C          2.42560        1.03099       -0.86768
C          3.37187        0.94652       -1.85905
C          4.10506        2.06928       -2.22567
H          4.41252        4.13184       -1.83318
H          1.46051        2.23967        0.57783
H          3.54593       -0.00831       -2.32541
Pd        -0.03155       -0.00427        1.32063
C         -1.40260       -4.73276        0.90328
C         -2.66040       -4.77585        0.01434
C         -2.44205       -5.83881       -1.07904
C         -3.86782       -5.16488        0.88480
H         -1.19097       -5.71578        1.32363
H         -0.53280       -4.42164        0.32567
H         -1.53134       -4.04130        1.73557
H         -2.20134       -6.80640       -0.63899
H         -3.33145       -5.96763       -1.69428
H         -1.62034       -5.55292       -1.73452
H         -3.70418       -6.12529        1.37327
H         -4.04058       -4.41670        1.65826
H         -4.77498       -5.24243        0.28630
C         -5.23664       -3.03111       -4.29375
C         -5.40880       -1.97779       -3.18238
C         -5.48944       -0.58585       -3.83928
C         -6.72347       -2.24023       -2.42564
H         -6.04352       -2.96131       -5.02310
H         -4.29474       -2.88969       -4.82170
H         -5.24444       -4.04251       -3.88980
H         -6.30371       -0.54625       -4.56267
H         -5.67389        0.18986       -3.09640
H         -4.56626       -0.34648       -4.36627
H         -6.72635       -3.23205       -1.97463
H         -6.86120       -1.51099       -1.62795
H         -7.58034       -2.17386       -3.09582
C         -6.80837        0.60653        0.58292
C         -6.37655        1.75593        1.51544
C         -7.11900        3.03445        1.08477
C         -6.76592        1.38783        2.95845
H         -6.55061        0.82620       -0.45300
H         -6.33103       -0.33105        0.86744
H         -7.88652        0.45389        0.62974
H         -8.19804        2.88163        1.09768
H         -6.89371        3.86789        1.74896
H         -6.83125        3.32411        0.07426
H         -6.52322        2.19308        3.65088
H         -7.83492        1.19045        3.03643
H         -6.23227        0.49510        3.28408
C         -2.13393        5.63673        2.09100
C         -2.29317        4.40874        3.00209
C         -0.91186        3.98444        3.54422
C         -3.17837        4.78331        4.20768
H         -3.10353        5.97486        1.72584
H         -1.66506        6.46315        2.62482
H         -1.51813        5.39948        1.22448
H         -0.19250        3.83730        2.74087
H         -0.50320        4.74636        4.20767
H         -0.98677        3.05327        4.10553
H         -2.68369        5.52413        4.83575
H         -4.12717        5.21288        3.88845
H         -3.38577        3.90778        4.82273
C          2.10532       -5.45763        2.29054
C          2.55103       -4.28504        3.18057
C          1.34564       -3.74884        3.97944
C          3.60280       -4.79592        4.18432
H          1.35598       -5.13669        1.56895
H          2.95040       -5.86159        1.73339
H          1.67662       -6.26231        2.88757
H          1.63131       -2.87599        4.56601
H          0.52702       -3.45571        3.32411
H          0.96325       -4.50593        4.66366
H          3.97470       -3.98256        4.80721
H          3.17324       -5.54988        4.84388
H          4.44812       -5.25462        3.67203
C          6.97381       -1.59979       -0.02791
C          6.44333       -1.43187        1.40825
C          7.29181       -2.30662        2.35048
C          6.58721        0.03919        1.84294
H          8.03039       -1.33915       -0.08697
H          6.86051       -2.63089       -0.36208
H          6.43403       -0.96129       -0.72621
H          7.23211       -3.35798        2.06970
H          8.34087       -2.01366        2.30960
H          6.96114       -2.20448        3.38391
H          7.63335        0.34462        1.84730
H          6.04881        0.70633        1.17058
H          6.18787        0.18409        2.84650
C          2.86987        4.42667        1.71018
C          2.61561        4.66362        0.20912
C          1.15151        5.08205       -0.00901
C          3.52787        5.81047       -0.26572
H          2.21804        3.64941        2.10648
H          3.89992        4.11450        1.88080
H          2.69187        5.33538        2.28485
H          0.91645        5.98811        0.54908
H          0.96154        5.27646       -1.06388
H          0.46738        4.29936        0.31428
H          3.36838        6.02692       -1.32190
H          3.32215        6.72379        0.29246
H          4.57877        5.56263       -0.11748
C          4.98247        3.05795       -4.36440
C          5.23236        2.00738       -3.26608
C          5.32147        0.61843       -3.92839
C          6.57284        2.29849       -2.56614
H          4.98520        4.06814       -3.95717
H          5.75408        3.00888       -5.13255
H          4.01857        2.89486       -4.84471
H          6.11298        0.59756       -4.67738
H          5.54587       -0.15405       -3.19320
H          4.38843        0.35908       -4.42694
H          6.57641        3.29142       -2.11779
H          6.75847        1.57392       -1.77337
H          7.40157        2.24696       -3.27206
H         -2.37733       -1.66945       -4.68941
H          1.76204       -0.21324       -4.36041
H         -0.96257       -1.10463       -5.57589
H         -1.73583       -0.06209       -4.37794
H          2.23730        1.37504       -4.95264
H          0.81241        0.58204       -5.61881
