72
-108.39980367
Cl        -1.83120        0.60573        2.74033
Cl         1.13769       -0.52535        2.71120
P          1.12640       -1.12455       -0.29867
P         -2.25910        0.08571       -0.35090
C         -3.24073       -1.52970       -0.18296
C         -3.60548       -1.74799        1.28669
C         -4.50142       -1.46555       -1.03798
C         -3.35731        1.61115       -0.03820
C         -4.15716        1.95866       -1.30090
C         -1.46197        0.45097       -2.02418
C         -1.51939       -0.67788       -3.03277
C          1.11883        0.24237       -1.49803
C         -0.04863        1.00318       -1.94462
C          0.43924        2.08735       -2.80044
C          1.88567        2.00522       -2.85229
C          2.30233        0.85851       -2.06757
C         -2.36678       -2.69633       -0.62241
H         -2.71862       -1.74041        1.92037
H         -4.29024       -0.99160        1.66018
H         -5.19605       -0.71169       -0.67160
H         -5.02565       -2.42242       -1.01990
C         -4.33059        1.41514        1.12062
H         -4.62826        1.07930       -1.73669
H         -3.53644        2.42645       -2.06434
H         -2.08013        1.26551       -2.41240
H         -0.85426       -1.48596       -2.73733
H         -1.17785       -0.34212       -4.01411
H         -2.52547       -1.07618       -3.15706
H         -0.18575        2.78177       -3.36504
H          2.54465        2.66027       -3.42665
Pd        -0.50850       -0.31009        1.18557
H          3.32703        0.52467       -1.89071
C         -2.39842        2.74600        0.28720
H         -4.94710        2.67433       -1.06693
H         -3.81945        1.08560        2.02244
H         -4.83056        2.35477        1.35989
H         -5.11035        0.69725        0.87353
H         -1.63617        2.84444       -0.48697
H         -2.92884        3.69745        0.36205
H         -1.90528        2.56844        1.24209
H         -4.09497       -2.71411        1.42019
H         -4.27060       -1.23604       -2.07700
H         -1.43954       -2.71116       -0.05237
H         -2.87372       -3.64698       -0.44820
H         -2.12512       -2.65521       -1.68115
C          2.80698       -1.21698        0.37378
C          3.25960       -2.19508        1.22417
C          4.59074       -1.89941        1.51789
C          4.89792       -0.75132        0.83059
O          3.81204       -0.32224        0.12375
H          2.68408       -3.01995        1.61031
H          5.24770       -2.45999        2.16269
H          5.85551       -0.24550        0.83907
C          0.75714       -2.72166       -1.04836
C          0.71373       -3.89905       -0.34280
C          0.40296       -4.90989       -1.25338
C          0.26984       -4.30566       -2.47937
O          0.48066       -2.96090       -2.36678
H          0.87057       -4.01160        0.71779
H          0.28920       -5.95943       -1.03640
H          0.03012       -4.80713       -3.40879
Fe         1.26726        2.14653       -0.90924
C          0.86416        2.61181        1.03691
C          0.82073        3.79966        0.20446
C          2.12002        3.94520       -0.42772
C          2.97242        2.86249        0.02999
C          2.18000        2.02262        0.90619
H          0.07818        2.24393        1.69859
H         -0.01684        4.49497        0.11321
H          2.42026        4.75749       -1.09366
H          4.01453        2.69390       -0.24978
H          2.52340        1.11910        1.41300
