75
-122.80878495
P          1.93256       -0.42684       -0.11048
C          3.35510       -1.02119       -1.05327
C          3.87467       -2.26766       -0.78292
C          4.97607       -2.72705       -1.48133
C          5.55646       -1.93298       -2.44963
C          5.03722       -0.68288       -2.71872
C          3.93600       -0.22857       -2.01670
H          3.51261        0.74012       -2.23011
H          5.48493       -0.06282       -3.47790
H          6.41389       -2.28963       -2.99673
H          5.38035       -3.70311       -1.26872
H          3.42163       -2.87817       -0.01992
C          1.64989       -1.56720        1.24336
C          2.07562       -1.24519        2.51124
C          1.94321       -2.16713        3.53362
C          1.39295       -3.40696        3.27437
C          0.96915       -3.72529        1.99924
C          1.09833       -2.80012        0.97919
H          0.78070       -3.03627       -0.02448
H          0.53472       -4.69078        1.79871
H          1.28706       -4.12533        4.07078
H          2.26996       -1.91769        4.52965
H          2.51350       -0.27684        2.69308
C          2.28874        1.23367        0.49660
C          3.50697        1.85639        0.34567
C          3.67598        3.18190        0.71939
C          2.58448        3.87331        1.24289
C          1.36222        3.26051        1.40917
C          1.21877        1.90648        1.06653
O          0.02089        1.21267        1.27752
C         -1.17192        1.89055        0.99125
C         -1.33389        3.26128        1.24480
C         -2.51255        3.87605        0.88373
C         -3.54867        3.16202        0.28199
C         -3.37694        1.80494        0.04788
C         -2.21025        1.17608        0.41433
P         -1.81535       -0.56053        0.13668
C         -1.75153       -1.41217        1.72972
C         -1.27982       -0.77847        2.85646
C         -1.30333       -1.42366        4.07819
C         -1.79712       -2.70953        4.16610
C         -2.26334       -3.34893        3.03494
C         -2.24118       -2.69634        1.81555
H         -2.61206       -3.18288        0.92791
H         -2.64581       -4.35417        3.10103
H         -1.81241       -3.21681        5.11691
H         -0.92894       -0.92593        4.95757
H         -0.87728        0.21554        2.77289
C         -3.10751       -1.38503       -0.81354
C         -4.40731       -1.31295       -0.36606
C         -5.41154       -1.96592       -1.05753
C         -5.10475       -2.69641       -2.18802
C         -3.79727       -2.78149       -2.62292
C         -2.79562       -2.12845       -1.92870
H         -1.77107       -2.19358       -2.25721
H         -3.55637       -3.35476       -3.50304
H         -5.88622       -3.20424       -2.72940
H         -6.43031       -1.90736       -0.71120
H         -4.62872       -0.76315        0.53519
Pd        -0.04262       -0.14472       -1.41781
Cl        -1.76510        0.67645       -2.63115
Cl         1.32984        0.02276       -3.18140
H         -4.15017        1.24801       -0.44976
C         -4.79555        3.84952       -0.14728
H         -5.65774        3.18651       -0.06422
H         -4.71908        4.17392       -1.18582
H         -4.99292        4.72882        0.46718
H         -2.62960        4.92936        1.06824
S         -0.02817        4.16084        2.04112
H          2.69284        4.90627        1.52323
C          5.00016        3.84293        0.57078
H          4.33658        1.31333       -0.07108
H          4.90335        4.92932        0.57649
H          5.66745        3.56036        1.38599
H          5.47579        3.55766       -0.36857
