105
-153.06111417
Cl         0.09083        3.08077        2.61109
Pd        -0.35255        1.76986        0.83901
P         -0.85467        0.54791       -1.14767
N          0.26664       -0.68773       -1.70302
C          0.58110       -2.01098       -1.37439
C          0.18450       -2.65451       -0.17673
C          0.72164       -3.91557        0.15140
C          0.42110       -4.51271        1.50548
C          0.63369       -6.03225        1.56412
C          2.00786       -6.40326        0.99729
C          2.14791       -5.93849       -0.46221
C          1.57639       -4.56847       -0.73917
C          1.91078       -3.94433       -1.93410
C          1.43916       -2.69328       -2.23662
H          1.73475       -2.21079       -3.15223
H          2.56761       -4.45106       -2.62084
H          3.20419       -5.94509       -0.76023
H          2.78902       -5.93109        1.60639
H          0.51790       -6.40689        2.59101
H          1.06553       -4.02239        2.24504
C         -0.73888       -2.00082        0.77861
C         -0.20057       -1.12767        1.75631
C         -1.05736       -0.60686        2.72956
C         -2.38441       -0.95088        2.75383
C         -2.91142       -1.85524        1.83872
C         -4.35306       -2.26750        1.96914
C         -4.60805       -3.67629        1.41516
C         -4.08339       -3.78612       -0.01993
C         -2.58181       -3.45571       -0.10960
C         -2.08789       -2.39202        0.84753
H         -2.00554       -4.37118        0.06546
H         -4.64833       -3.09737       -0.65690
H         -5.67603       -3.93203        1.46516
H         -4.97817       -1.53970        1.43953
H         -3.03149       -0.53371        3.50657
H         -0.65767        0.07703        3.45770
N          1.18739       -0.86103        1.80392
P          1.73323        0.74948        1.31293
C          2.44160        0.77988       -0.33023
C          2.23341        1.87444       -1.13567
C          2.71613        1.87112       -2.43090
C          3.41861        0.77896       -2.92052
C          3.66404       -0.29307       -2.07290
C          3.17049       -0.29455       -0.78015
H          3.31020       -1.14737       -0.13524
H          4.22534       -1.13639       -2.43737
C          3.93269        0.77647       -4.31763
H          2.53987        2.71644       -3.07417
H          1.68424        2.72219       -0.75768
C          3.05163        1.25489        2.42995
C          4.10996        0.39031        2.58761
C          5.16683        0.73452        3.41223
C          5.17545        1.95220        4.07844
C          4.09445        2.80733        3.91518
C          3.04030        2.45830        3.09313
H          2.19438        3.11334        2.98235
H          4.08114        3.74674        4.44106
C          6.30056        2.31336        4.98485
H          5.99357        0.05716        3.54201
H          4.10661       -0.55301        2.06432
H          1.58483       -0.87355        2.73936
H          1.03912       -0.13899       -2.06419
C         -0.74427        1.82977       -2.40925
C         -1.10495        3.13037       -2.14923
C         -0.99027        4.09179       -3.13444
C         -0.51657        3.75754       -4.39553
C         -0.18732        2.43418       -4.65346
C         -0.30234        1.47563       -3.66282
H         -0.04611        0.44845       -3.86515
H          0.16164        2.15887       -5.63405
C         -0.41026        4.78820       -5.46491
H         -1.27323        5.11031       -2.93027
H         -1.49509        3.38563       -1.17921
C         -2.51830       -0.09879       -1.33297
C         -2.70180       -0.97825       -2.37457
C         -3.97050       -1.44316       -2.67602
C         -5.06704       -1.02718       -1.93325
C         -4.86564       -0.12738       -0.89629
C         -3.59807        0.33673       -0.60324
H         -3.45294        1.07139        0.16859
H         -5.71264        0.22163       -0.33059
C         -6.43805       -1.50571       -2.26298
H         -4.11474       -2.12960       -3.49264
H         -1.84642       -1.29112       -2.95310
Cl        -2.36992        2.76147        0.74147
H          1.65375       -6.65836       -1.12564
H         -0.14832       -6.53078        0.97770
H          2.18356       -7.48503        1.08170
H         -0.60222       -4.26072        1.80702
H         -4.28476       -4.78621       -0.42882
H         -2.32085       -3.15226       -1.13019
H         -4.65636       -2.20728        3.02211
H         -4.09604       -4.41322        2.04673
H          4.92467        1.22746       -4.36659
H          4.00400       -0.23936       -4.70897
H          3.27296        1.33967       -4.97939
H          7.24180        1.88985        4.63159
H          6.42679        3.39528        5.04462
H          6.12045        1.93934        5.99360
H         -1.33772        4.85105       -6.03565
H         -0.20687        5.77351       -5.04319
H          0.39748        4.55280       -6.15937
H         -7.03786       -1.62957       -1.36010
H         -6.95017       -0.79492       -2.91284
H         -6.40832       -2.46861       -2.77492
