171
-217.84625690
P         -1.60059        0.37723       -0.34096
P          1.62357       -0.44943       -0.26653
C         -0.83862        1.29682       -1.68117
C          0.89363       -1.42956       -1.58631
C         -0.06285        0.63608       -2.62623
C          0.56494        1.39107       -3.63545
C          0.37762        2.76307       -3.66948
C         -0.40654        3.39743       -2.72910
C         -1.01119        2.65820       -1.73144
C          1.07681       -2.79050       -1.54615
C          0.47229       -3.60239       -2.48535
C         -0.33403       -3.04156       -3.45288
C         -0.53516       -1.67254       -3.51005
C          0.10563       -0.84187       -2.57057
Cl         1.54417        0.29084        2.88423
Cl        -1.66328       -0.44535        2.82139
C         -1.43310       -1.11313       -4.55786
C          1.40016        0.73524       -4.67891
H         -0.54881        4.46479       -2.77338
H         -1.62425        3.14479       -0.99036
H          1.69319       -3.22172       -0.77399
H          0.62350       -4.66903       -2.45501
H          0.85474        3.33617       -4.44651
H         -0.82441       -3.67108       -4.17624
C         -4.00209       -3.19607       -1.71070
C         -2.99029       -3.39097       -0.77888
C         -2.25698       -2.28218       -0.37607
C         -2.51768       -1.04719       -0.91451
C         -3.50607       -0.87368       -1.85173
C         -4.27790       -1.95281       -2.26609
H         -4.60823       -4.03581       -1.99620
H         -1.48297       -2.36909        0.36651
H         -3.67684        0.11488       -2.24341
C         -4.31897        2.99214        2.18546
C         -4.87723        1.96211        1.43730
C         -4.02438        1.18652        0.66530
C         -2.67642        1.44072        0.63595
C         -2.14164        2.46043        1.38305
C         -2.95222        3.24807        2.19053
H         -4.96334        3.60863        2.78174
H         -4.41682        0.36767        0.08857
H         -1.07973        2.62969        1.34385
C          4.53187       -2.86959        2.23178
C          3.17819       -3.17175        2.31145
C          2.30083       -2.43720        1.52341
C          2.76982       -1.44147        0.70248
C          4.11086       -1.15431        0.64038
C          5.02418       -1.86895        1.40407
H          5.22200       -3.41948        2.84494
H          1.24067       -2.61915        1.56259
H          4.43816       -0.35373        0.00167
C          3.79596        3.32126       -1.49711
C          2.85958        3.38638       -0.47249
C          2.18372        2.22081       -0.13885
C          2.43763        1.05033       -0.80902
C          3.36974        0.99957       -1.81640
C          4.07436        2.14221       -2.17818
H          4.34173        4.20600       -1.76565
H          1.47131        2.21818        0.66832
H          3.55254        0.05655       -2.30276
Pd        -0.03493       -0.06072        1.32737
C         -3.96093       -5.20452        0.64647
C         -2.74210       -4.78810       -0.19537
C         -1.49095       -4.80923        0.70353
C         -2.53130       -5.79621       -1.34089
H         -4.12970       -4.49405        1.45556
H         -4.86486       -5.24030        0.03925
H         -3.81310       -6.19035        1.08699
H         -1.61509       -4.15346        1.56504
H         -1.30193       -5.81432        1.08029
H         -0.60845       -4.49028        0.14965
H         -2.31034       -6.78933       -0.95015
H         -3.41722       -5.87748       -1.96917
H         -1.69941       -5.49036       -1.97417
C         -5.47430       -0.38495       -3.87323
C         -5.45605       -1.78879       -3.23674
C         -6.76867       -1.99505       -2.45969
C         -5.35664       -2.83068       -4.36781
H         -6.28953       -0.29647       -4.59120
H         -5.61844        0.38848       -3.11935
H         -4.54311       -0.18240       -4.40175
H         -6.81348       -2.99268       -2.02380
H         -6.85382       -1.27284       -1.64799
H         -7.63301       -1.87406       -3.11240
H         -4.41556       -2.73045       -4.90695
H         -5.41494       -3.84736       -3.98186
H         -6.16826       -2.70411       -5.08415
C         -6.92923        1.80939        0.00721
C         -6.37945        1.64542        1.43628
C         -7.16203        2.58351        2.37473
C         -6.59114        0.19411        1.90818
H         -6.77451        2.82714       -0.35048
H         -6.43225        1.13291       -0.68690
H         -7.99767        1.59718       -0.02730
H         -6.80983        2.49281        3.40211
H         -7.06120        3.62327        2.06415
H         -8.22426        2.33934        2.36734
H         -7.65165       -0.05467        1.94214
H         -6.10468       -0.51600        1.24038
H         -6.17750        0.05050        2.90612
C         -0.96360        3.97868        3.56764
C         -2.34313        4.39285        3.01350
C         -3.24151        4.75856        4.21220
C         -2.18638        5.62386        2.10608
H         -0.56694        4.74286        4.23576
H         -1.03646        3.04619        4.12703
H         -0.23589        3.83814        2.77083
H         -3.44825        3.88027        4.82350
H         -2.75733        5.50130        4.84618
H         -4.19034        5.18276        3.88597
H         -1.72545        6.45195        2.64421
H         -1.56492        5.39228        1.24218
H         -3.15603        5.95693        1.73644
C          3.02766       -3.81741        4.72503
C          2.69110       -4.25181        3.28713
C          3.38884       -5.58644        2.96633
C          1.16843       -4.46295        3.18480
H          2.67692       -4.55352        5.44808
H          4.10212       -3.70004        4.86110
H          2.55525       -2.86297        4.95696
H          3.04019       -6.37770        3.62981
H          3.18252       -5.89096        1.94036
H          4.46914       -5.50846        3.08180
H          0.83699       -5.23949        3.87394
H          0.62650       -3.55028        3.43230
H          0.88826       -4.77215        2.17872
C          6.85908       -0.43949        0.37168
C          6.52793       -1.56187        1.37576
C          7.30002       -2.82810        0.96200
C          6.97774       -1.11149        2.77744
H          7.93030       -0.23937        0.35382
H          6.55815       -0.71666       -0.63846
H          6.35559        0.48908        0.64039
H          7.14288       -3.63867        1.67257
H          6.97340       -3.17425       -0.01847
H          8.37106       -2.63271        0.91159
H          6.80998       -1.89363        3.51694
H          8.03932       -0.86501        2.78664
H          6.42256       -0.22846        3.09338
C          1.10488        5.08037        0.08908
C          2.57096        4.67325        0.31250
C          3.47598        5.83522       -0.13930
C          2.81740        4.41896        1.81215
H          0.85557        5.97364        0.66143
H          0.92156        5.29174       -0.96373
H          0.42728        4.28399        0.39176
H          3.31564        6.07186       -1.19099
H          3.26393        6.73607        0.43648
H          4.52836        5.59107        0.00462
H          2.62830        5.31883        2.39710
H          2.16959        3.63175        2.19494
H          3.84897        4.11333        1.98543
C          4.85214        3.15882       -4.34097
C          5.17672        2.12442       -3.24698
C          5.31021        0.73724       -3.90519
C          6.52221        2.47816       -2.58630
H          4.81976        4.16918       -3.93531
H          5.60532        3.14188       -5.12855
H          3.88457        2.95211       -4.79598
H          6.08878        0.74465       -4.66788
H          5.57785       -0.02174       -3.17033
H          4.38026        0.43789       -4.38658
H          6.49606        3.47322       -2.14362
H          6.76168        1.76741       -1.79587
H          7.33229        2.45800       -3.31511
H         -0.96331       -1.16096       -5.54122
H          2.22779        1.37787       -4.97906
H         -1.68843       -0.07250       -4.35390
H         -2.36576       -1.67570       -4.60516
H          0.80980        0.51770       -5.56984
H          1.82327       -0.20270       -4.31657
