59
-75.79987986
Cl         1.47535        1.07896        2.31307
P          1.59464        0.08355       -0.74919
P         -1.56455       -0.18244       -0.81711
C          0.66157        0.44879       -2.29745
H          0.39108        1.50778       -2.28296
H          1.32441        0.28777       -3.15311
C         -0.56519       -0.41801       -2.35674
H         -0.28678       -1.46998       -2.43350
H         -1.19397       -0.18939       -3.22298
C          2.27720       -1.64131       -0.78859
H          1.95212       -2.08441       -1.73726
C          3.18449        1.02679       -0.62784
H          3.34448        1.21020        0.44186
C         -2.57414       -1.64895       -0.27602
H         -2.15634       -1.99246        0.67875
C         -2.92331        1.04179       -1.13813
H         -2.79197        1.40155       -2.16639
C          3.80643       -1.44247       -0.77292
H          4.18092       -1.66864        0.23460
H          4.29583       -2.17084       -1.43666
C          4.21174        0.00764       -1.14977
H          4.27771        0.10103       -2.24289
H          5.21701        0.24856       -0.77083
C         -3.97189       -1.02991       -0.07127
H         -4.74775       -1.79288       -0.23110
H         -4.08566       -0.70758        0.97451
C         -4.19856        0.18644       -1.00684
H         -5.02728        0.80893       -0.63889
H         -4.51458       -0.17136       -1.99792
C          1.75739       -2.45618        0.39090
H          0.66222       -2.38762        0.42799
H          2.10006       -1.98464        1.32201
C          3.17647        2.34934       -1.38574
H          4.20596        2.72716       -1.45700
H          2.86571        2.16504       -2.42206
C         -2.56961       -2.79979       -1.28666
H         -3.47952       -3.39990       -1.14660
H         -2.65797       -2.38278       -2.29819
C         -2.89177        2.22228       -0.17340
H         -3.82744        2.79073       -0.26848
H         -2.89275        1.83636        0.85399
C          2.18812       -3.91471        0.34560
H          1.79795       -4.48318        1.19290
H          3.27533       -4.00888        0.36079
H          1.83687       -4.40136       -0.56624
C          2.28571        3.39636       -0.73821
H          2.61239        3.61789        0.27960
H          1.25606        3.04822       -0.67151
H          2.28057        4.33573       -1.29572
C         -1.35455       -3.70955       -1.17802
H         -1.38625       -4.52285       -1.90669
H         -1.28961       -4.16221       -0.18662
H         -0.42466       -3.16728       -1.34072
C         -1.70636        3.14623       -0.39303
H         -1.70071        3.98249        0.30975
H         -0.76695        2.61025       -0.26891
H         -1.70857        3.56200       -1.40243
Cl        -1.72895        0.26251        2.34963
Pd        -0.04169        0.27610        0.87340
