75
-122.80710986
P          1.80600       -0.56327       -0.18818
C          1.76427       -1.21690       -1.87221
C          2.24502       -2.48655       -2.10270
C          2.28015       -2.99071       -3.39028
C          1.83589       -2.21769       -4.44421
C          1.35147       -0.94638       -4.21166
C          1.31495       -0.44992       -2.92263
H          0.91952        0.53124       -2.72786
H          0.99458       -0.34445       -5.03113
H          1.86130       -2.60922       -5.44802
H          2.65531       -3.98487       -3.56942
H          2.59794       -3.07858       -1.27378
C          3.05480       -1.52351        0.68806
C          2.69326       -2.40125        1.68432
C          3.66081       -3.15607        2.32135
C          4.98421       -3.03688        1.94681
C          5.34081       -2.17082        0.93261
C          4.37058       -1.41641        0.29819
H          4.63128       -0.75906       -0.51631
H          6.37213       -2.08505        0.63212
H          5.73921       -3.62393        2.44384
H          3.38094       -3.83481        3.11019
H          1.65664       -2.49112        1.96598
C          2.23223        1.18690       -0.24192
C          3.39707        1.75156        0.22214
C          3.58445        3.12548        0.16431
C          2.57844        3.91826       -0.38811
C          1.40138        3.36724       -0.84473
C          1.21603        1.97923       -0.75302
O          0.02149        1.35641       -1.14010
C         -1.17214        2.04025       -0.87944
C         -1.29035        3.42569       -1.07430
C         -2.50930        4.03391       -0.87136
C         -3.62432        3.30327       -0.46403
C         -3.47600        1.94581       -0.21630
C         -2.26205        1.32540       -0.40619
P         -1.93951       -0.39325        0.03991
C         -3.39249       -1.05291        0.88720
C         -3.93364       -2.25025        0.47490
C         -5.05819       -2.75537        1.10109
C         -5.63930       -2.05624        2.13968
C         -5.09769       -0.85531        2.55125
C         -3.97335       -0.35462        1.92101
H         -3.53133        0.57424        2.24540
H         -5.54597       -0.31023        3.36561
H         -6.51476       -2.44899        2.63061
H         -5.47978       -3.69295        0.77774
H         -3.47862       -2.78587       -0.34138
C         -1.63808       -1.40086       -1.41149
C         -1.10131       -2.65842       -1.25519
C         -0.95474       -3.48203       -2.35669
C         -1.34731       -3.03853       -3.60414
C         -1.88386       -1.77492       -3.75455
C         -2.03315       -0.95445       -2.65124
H         -2.45995        0.03091       -2.74825
H         -2.18622       -1.42790       -4.72884
H         -1.22788       -3.67763       -4.46368
H         -0.53133       -4.46610       -2.24078
H         -0.80862       -2.99284       -0.27208
Pd         0.03145       -0.27501        1.38302
Cl        -1.37829       -0.44290        3.12170
Cl         1.70426        0.28360        2.79277
H         -4.31764        1.37563        0.13480
C         -4.92941        3.97698       -0.23088
H         -5.00703        4.32315        0.80051
H         -5.76161        3.29815       -0.42191
H         -5.04912        4.84050       -0.88643
H         -2.59676        5.09455       -1.02889
S          0.12751        4.37010       -1.56617
H          2.71864        4.98244       -0.45922
C          4.85108        3.73497        0.65017
H          4.15704        1.12788        0.65689
H          5.60963        3.72857       -0.13354
H          4.69676        4.76874        0.96192
H          5.24596        3.18684        1.50661
