75
-122.80625438
P          1.88898       -0.07085       -0.11542
C          3.29174       -0.48785       -1.16419
C          4.32239       -1.26138       -0.68290
C          5.40562       -1.54426       -1.49426
C          5.45019       -1.04490       -2.78083
C          4.41715       -0.26180       -3.25635
C          3.33506        0.01987       -2.44196
H          2.52094        0.63249       -2.79666
H          4.45145        0.12803       -4.26035
H          6.29264       -1.26720       -3.41527
H          6.21243       -2.15429       -1.12253
H          4.27821       -1.63808        0.32584
C          1.84351       -1.13431        1.33639
C          1.75698       -0.59509        2.59899
C          1.72263       -1.42876        3.70136
C          1.76750       -2.79836        3.53021
C          1.84149       -3.33610        2.26066
C          1.87815       -2.49865        1.16204
H          1.91545       -2.89748        0.16073
H          1.86410       -4.40478        2.12480
H          1.73446       -3.44899        4.38879
H          1.65086       -1.00930        4.69134
H          1.69665        0.47436        2.71506
C          2.20527        1.62981        0.38181
C          3.39272        2.27940        0.13307
C          3.56506        3.60543        0.50553
C          2.50150        4.27231        1.11189
C          1.30877        3.63209        1.36634
C          1.16314        2.28007        1.01542
O         -0.01858        1.57135        1.25931
C         -1.19982        2.26432        0.97254
C         -1.37057        3.61720        1.30853
C         -2.55716        4.24550        1.00152
C         -3.59212        3.56370        0.36323
C         -3.39820        2.23360        0.01706
C         -2.21585        1.59575        0.31568
P         -1.88477       -0.12192       -0.11605
C         -1.80429       -1.11604        1.38654
C         -1.73643       -0.51527        2.62264
C         -1.68112       -1.29203        3.76488
C         -1.68842       -2.66889        3.66189
C         -1.74567       -3.26940        2.42025
C         -1.80237       -2.48773        1.28241
H         -1.83071       -2.93803        0.30391
H         -1.73984       -4.34368        2.33666
H         -1.63964       -3.27549        4.55140
H         -1.62354       -0.82228        4.73297
H         -1.70789        0.55950        2.68846
C         -3.30478       -0.59994       -1.11501
C         -3.37045       -0.17482       -2.42180
C         -4.46681       -0.50674       -3.19713
C         -5.49105       -1.25713       -2.65447
C         -5.42337       -1.67435       -1.33991
C         -4.32597       -1.34151       -0.56744
H         -4.26213       -1.65508        0.46173
H         -6.22301       -2.25939       -0.91619
H         -6.34459       -1.51848       -3.25847
H         -4.51909       -0.18156       -4.22314
H         -2.56262        0.41265       -2.82934
Pd         0.02238       -1.12492       -1.18216
Cl        -1.53214       -2.58795       -1.95151
Cl         1.52460       -2.45553       -2.22528
H         -4.17752        1.69617       -0.49404
C         -4.85943        4.26005        0.01554
H         -4.79399        4.71056       -0.97563
H         -5.08265        5.05184        0.73178
H         -5.70149        3.56663        0.01537
H         -2.68226        5.28219        1.26011
S         -0.05216        4.48023        2.12222
H          2.60778        5.30769        1.38381
C          4.83834        4.31557        0.21198
H          4.19122        1.75561       -0.36256
H          4.80276        4.78229       -0.77320
H          5.03203        5.09659        0.94836
H          5.68474        3.62767        0.22835
