59
-75.79960633
Cl         1.68854        0.02956        2.40879
P          1.53808       -0.02694       -0.84851
P         -1.60697       -0.24576       -0.70922
C          0.55656       -0.21613       -2.40989
H          0.32801        0.78615       -2.77954
H          1.18337       -0.69957       -3.16555
C         -0.71571       -0.97857       -2.15048
H         -0.50805       -2.02450       -1.91574
H         -1.38522       -0.96831       -3.01573
C          3.02190       -1.13488       -0.77844
H          3.19446       -1.47928       -1.80527
C          2.36757        1.62501       -0.67766
H          2.11444        1.98416        0.32750
C         -3.22878       -1.06936       -0.37340
H         -3.40149       -0.97263        0.70554
C         -2.21886        1.45051       -1.13645
H         -1.85680        1.66741       -2.14837
C          4.14533       -0.18246       -0.33060
H          4.22995       -0.22908        0.76405
H          5.11683       -0.52769       -0.71616
C          3.86526        1.28178       -0.76153
H          4.20518        1.42851       -1.79589
H          4.45415        1.98668       -0.15520
C         -4.21159       -0.17431       -1.14768
H         -4.26562       -0.52601       -2.18762
H         -5.23005       -0.28413       -0.74395
C         -3.75599        1.31113       -1.11931
H         -4.14226        1.78651       -0.20756
H         -4.20255        1.87325       -1.95301
C          2.83390       -2.32762        0.15241
H          2.58221       -1.95776        1.15469
H          3.79664       -2.84431        0.26998
C          1.90636        2.63386       -1.72441
H          2.17925        2.26048       -2.72014
H          0.81016        2.68502       -1.72585
C         -3.24883       -2.53957       -0.77198
H         -4.28559       -2.90357       -0.75466
H         -2.92942       -2.63004       -1.81811
C         -1.68233        2.47596       -0.14384
H         -2.07227        2.23652        0.85489
H         -0.59394        2.36211       -0.05480
C          1.77521       -3.30475       -0.32767
H          1.67223       -4.16165        0.34204
H          2.01075       -3.68826       -1.32218
H          0.80090       -2.82228       -0.39032
C          2.48663        4.02280       -1.50470
H          2.14067        4.73555       -2.25686
H          3.57727        4.00864       -1.54405
H          2.20528        4.41596       -0.52587
C         -2.37979       -3.40201        0.13024
H         -1.34881       -3.04837        0.14103
H         -2.36797       -4.44778       -0.18497
H         -2.73315       -3.37241        1.16271
C         -2.02675        3.90899       -0.52084
H         -3.10673        4.05777       -0.57240
H         -1.63020        4.62829        0.19933
H         -1.61969        4.16674       -1.50048
Cl        -1.57336       -0.47937        2.43307
Pd         0.04945       -0.22321        0.90421
