171
-217.84464478
P         -1.64393        0.40610       -0.40104
P          1.59220       -0.37635       -0.40445
C         -0.94068        1.37482       -1.73878
C          0.89368       -1.31343       -1.76400
C         -0.11618        0.78470       -2.69060
C          0.50927        1.60829       -3.64688
C          0.25037        2.96858       -3.64330
C         -0.60138        3.52802       -2.71486
C         -1.18570        2.72641       -1.75406
C          1.13905       -2.66361       -1.81861
C          0.58039       -3.43016       -2.82242
C         -0.24073       -2.83629       -3.75729
C         -0.50050       -1.47616       -3.71817
C          0.09389       -0.68935       -2.71363
Cl         1.58773        0.40748        2.75652
Cl        -1.52739       -0.34650        2.85480
C         -1.37209       -0.85974       -4.75520
C          1.45062        1.05176       -4.65759
H         -0.80302        4.58661       -2.73171
H         -1.83583        3.15811       -1.01019
H          1.77247       -3.11958       -1.07472
H          0.78310       -4.48752       -2.87207
H          0.72772        3.59196       -4.38058
H         -0.68727       -3.43193       -4.53553
C         -3.90702       -3.33499       -1.56345
C         -2.87390       -3.42769       -0.63825
C         -2.17038       -2.26986       -0.33519
C         -2.50438       -1.07512       -0.92280
C         -3.53309       -0.99777       -1.82939
C         -4.26176       -2.13265       -2.16577
H         -4.45589       -4.22190       -1.81392
H         -1.36023       -2.29539        0.37321
H         -3.77796       -0.04228       -2.26257
C         -4.26135        2.84880        2.38526
C         -4.84370        1.82329        1.65170
C         -4.03086        1.10410        0.78423
C         -2.70021        1.41686        0.65351
C         -2.14354        2.43927        1.38331
C         -2.91538        3.17207        2.27583
H         -4.86997        3.39909        3.07904
H         -4.42450        0.27794        0.21964
H         -1.09166        2.64019        1.27414
C          4.26503       -2.93081        2.22651
C          2.90052       -3.19482        2.20220
C          2.10659       -2.42795        1.36029
C          2.65653       -1.42543        0.60036
C          4.00456       -1.17160        0.64483
C          4.84077       -1.92885        1.45490
H          4.90114       -3.50754        2.87121
H          1.04362       -2.59599        1.31863
H          4.39692       -0.36354        0.05410
C          3.94830        3.28672       -1.61894
C          2.95070        3.41718       -0.66019
C          2.21931        2.28487       -0.32833
C          2.48667        1.08139       -0.93086
C          3.47531        0.96702       -1.87697
C          4.23092        2.07613       -2.24037
H          4.53762        4.14469       -1.88192
H          1.44428        2.33655        0.41722
H          3.65771        0.00145       -2.31730
Pd        -0.02066        0.02599        1.23015
C         -1.13888       -5.22266       -0.52659
C         -2.48647       -4.74963        0.04060
C         -3.53987       -5.84721       -0.20560
C         -2.36359       -4.53561        1.56284
H         -0.36674       -4.47144       -0.36802
H         -0.81539       -6.14883       -0.05194
H         -1.21586       -5.40094       -1.59881
H         -3.27839       -6.76028        0.32917
H         -4.52319       -5.52913        0.14055
H         -3.60935       -6.09830       -1.26369
H         -1.57622       -3.82431        1.80656
H         -3.29757       -4.15331        1.97394
H         -2.12920       -5.47118        2.07033
C         -4.94477       -1.51928       -4.50518
C         -5.44579       -2.01764       -3.13898
C         -6.47210       -1.02028       -2.57152
C         -6.15072       -3.37255       -3.34596
H         -4.23280       -2.22486       -4.93157
H         -5.77104       -1.41195       -5.20778
H         -4.45457       -0.55054       -4.41753
H         -6.82709       -1.35007       -1.59550
H         -6.03719       -0.02826       -2.45604
H         -7.33518       -0.93016       -3.23089
H         -6.54270       -3.75889       -2.40525
H         -6.98939       -3.27021       -4.03458
H         -5.46794       -4.11032       -3.76706
C         -7.18399        2.73610        1.61357
C         -6.32555        1.48130        1.86039
C         -6.52730        0.98717        3.30412
C         -6.79386        0.37751        0.89312
H         -7.02529        3.11817        0.60528
H         -8.24440        2.51069        1.72588
H         -6.93851        3.53162        2.31588
H         -7.56805        0.71815        3.48361
H         -5.91191        0.10893        3.49858
H         -6.25036        1.75482        4.02587
H         -7.85185        0.15874        1.03704
H         -6.65763        0.68841       -0.14203
H         -6.24212       -0.54852        1.05395
C         -0.80536        4.43786        2.92284
C         -2.31744        4.27093        3.16540
C         -2.52913        3.89461        4.64365
C         -3.01362        5.60918        2.86025
H         -0.39159        5.21253        3.56820
H         -0.27060        3.51187        3.13385
H         -0.60733        4.72795        1.89230
H         -3.58819        3.81854        4.88661
H         -2.06553        2.93302        4.86353
H         -2.08843        4.64150        5.30369
H         -2.59755        6.41275        3.46770
H         -2.88670        5.87802        1.81165
H         -4.08226        5.55511        3.06489
C          1.19609       -3.57045        3.99813
C          2.24017       -4.25508        3.09452
C          3.26922       -4.96981        3.99074
C          1.54857       -5.30600        2.20885
H          0.71925       -4.29192        4.66115
H          1.66479       -2.80254        4.61301
H          0.41424       -3.09120        3.41041
H          4.02077       -5.48421        3.39215
H          3.77406       -4.26258        4.64855
H          2.78225       -5.71505        4.61962
H          1.08106       -6.08229        2.81434
H          0.77359       -4.85015        1.59613
H          2.26663       -5.78228        1.54157
C          7.11740       -2.94716        1.17313
C          6.35040       -1.66324        1.53972
C          6.70715       -1.23410        2.97430
C          6.78484       -0.54474        0.57140
H          6.85377       -3.27886        0.16898
H          8.19396       -2.77962        1.20148
H          6.88909       -3.75759        1.86422
H          6.46275       -2.01553        3.69291
H          7.77159       -1.01806        3.06424
H          6.15481       -0.33753        3.25518
H          6.54603       -0.80569       -0.45948
H          6.29306        0.39743        0.81302
H          7.86037       -0.37819        0.62947
C          2.70825        4.54627        1.56779
C          2.63908        4.74627        0.04138
C          1.22701        5.20374       -0.36114
C          3.64236        5.84870       -0.34825
H          2.50666        5.47941        2.09346
H          1.98096        3.81068        1.90755
H          3.69696        4.19757        1.86509
H          0.48533        4.44423       -0.11843
H          0.95063        6.12447        0.15227
H          1.17643        5.38696       -1.43397
H          3.41979        6.77679        0.17818
H          4.66131        5.55878       -0.09221
H          3.60009        6.05956       -1.41663
C          5.20913        3.03076       -4.35503
C          5.39358        1.98412       -3.23946
C          5.47511        0.58863       -3.88883
C          6.71362        2.25464       -2.49464
H          5.21366        4.04412       -3.95592
H          6.01202        2.96164       -5.08883
H          4.26488        2.88176       -4.87676
H          5.66292       -0.18235       -3.14183
H          4.55144        0.34404       -4.41245
H          6.28763        0.54661       -4.61406
H          6.71841        3.24939       -2.05026
H          6.85926        1.53078       -1.69342
H          7.56531        2.18567       -3.17114
H         -2.07859       -1.58670       -5.15606
H          1.02250        1.10074       -5.65977
H         -0.77957       -0.48136       -5.58879
H         -1.94530       -0.02805       -4.34302
H          1.70027        0.01137       -4.44580
H          2.38253        1.61689       -4.66515
