75
-122.81198407
P          1.91272       -0.51834       -0.16686
C          3.35285       -1.19720       -1.02041
C          4.28388       -1.88020       -0.26965
C          5.40759       -2.41218       -0.87606
C          5.59564       -2.25380       -2.23440
C          4.66608       -1.56146       -2.98381
C          3.54703       -1.03127       -2.37166
H          2.83178       -0.46487       -2.94110
H          4.81506       -1.42862       -4.04285
H          6.47040       -2.66744       -2.70918
H          6.13382       -2.94926       -0.28834
H          4.12665       -1.99661        0.79081
C          1.62561       -1.59153        1.24355
C          1.91390       -1.15778        2.51716
C          1.80484       -2.03377        3.58142
C          1.41330       -3.33935        3.35961
C          1.12671       -3.76994        2.07922
C          1.23726       -2.89190        1.01589
H          1.03794       -3.21731        0.00673
H          0.81830       -4.78796        1.90721
H          1.32422       -4.02208        4.18875
H          2.02402       -1.69684        4.58118
H          2.22634       -0.13772        2.67148
C          2.27077        1.16224        0.35629
C          3.43210        1.81658        0.01912
C          3.60640        3.15464        0.34549
C          2.56502        3.82841        0.98297
C          1.39146        3.18634        1.31194
C          1.24591        1.82134        1.01804
O          0.07115        1.12477        1.34418
C         -1.13563        1.78754        1.06798
C         -1.29334        3.15657        1.33526
C         -2.48061        3.77504        1.01243
C         -3.52211        3.07161        0.40860
C         -3.35374        1.71790        0.15360
C         -2.17977        1.08339        0.48623
P         -1.80178       -0.64164        0.11537
C         -1.75337       -1.56183        1.66538
C         -1.39162       -0.94056        2.83861
C         -1.44398       -1.63290        4.03373
C         -1.85314       -2.95131        4.04599
C         -2.20655       -3.57670        2.86687
C         -2.15873       -2.87743        1.67431
H         -2.44774       -3.34941        0.74892
H         -2.52306       -4.60671        2.87492
H         -1.88995       -3.49485        4.97593
H         -1.15703       -1.14615        4.95128
H         -1.05044        0.08015        2.81107
C         -3.09662       -1.40221       -0.87945
C         -4.39183       -1.37734       -0.41411
C         -5.39824       -1.98207       -1.14523
C         -5.09778       -2.61790       -2.33323
C         -3.79430       -2.65740       -2.78643
C         -2.79040       -2.05258       -2.05268
H         -1.76824       -2.08469       -2.39361
H         -3.55818       -3.15804       -3.71103
H         -5.88097       -3.08811       -2.90524
H         -6.41370       -1.95992       -0.78520
H         -4.60778       -0.90207        0.52990
Pd        -0.06562       -0.03295       -1.39979
Cl        -1.76752        0.80349       -2.62967
Cl         1.36676        1.04797       -2.76551
H         -4.13726        1.16780       -0.33552
C         -4.79959        3.75092        0.06425
H         -4.64683        4.81845       -0.09922
H         -5.52934        3.63343        0.86631
H         -5.23029        3.33522       -0.84766
H         -2.59766        4.82342        1.22292
S          0.04680        4.04791        2.08300
H          2.66974        4.87432        1.21164
C          4.84921        3.87243       -0.04326
H          4.19895        1.29022       -0.52247
H          5.06721        4.68597        0.64982
H          5.70743        3.19916       -0.04498
H          4.75261        4.29751       -1.04306
