72
-108.40330389
Cl        -1.69006        0.83481        2.74884
Cl         0.92948       -0.95072        2.74404
P          1.11427       -1.11703       -0.28281
P         -2.24340        0.10257       -0.40634
C         -3.24544       -1.49558       -0.19919
C         -3.60933       -1.67920        1.27612
C         -4.50683       -1.43256       -1.05266
C         -3.31357        1.64925       -0.11762
C         -4.14310        1.96873       -1.36777
C         -1.44248        0.42935       -2.08066
C         -1.49147       -0.72286       -3.06241
C          1.12844        0.22810       -1.50701
C         -0.03085        0.97827       -1.98561
C          0.47836        2.07546       -2.81100
C          1.92350        1.98168       -2.87134
C          2.32026        0.85755       -2.04526
C         -2.38758       -2.68136       -0.61684
H         -4.29120       -0.91263        1.63363
H         -4.10343       -2.63978        1.43077
H         -5.19626       -0.67151       -0.69069
H         -5.03681       -2.38604       -1.02460
C         -4.25276        1.48811        1.07330
H         -4.90535        2.71514       -1.13817
H         -4.65171        1.08748       -1.75392
H         -2.05497        1.23653       -2.49299
H         -0.83493       -1.52697       -2.73825
H         -1.13533       -0.41241       -4.04687
H         -2.49835       -1.11901       -3.18961
H         -0.13852        2.76809       -3.38645
H          2.59196        2.63904       -3.43131
Pd        -0.53773       -0.26615        1.17572
H          3.34171        0.52590       -1.84642
C         -2.33929        2.78679        0.14901
H         -3.53432        2.38701       -2.16846
H         -3.71895        1.15320        1.96031
H         -4.72328        2.44122        1.31919
H         -5.05626        0.78622        0.85701
H         -1.59529        2.85909       -0.64557
H         -2.86225        3.74334        0.20924
H         -1.82368        2.63494        1.09580
H         -2.72267       -1.66273        1.90981
H         -4.27504       -1.21418       -2.09415
H         -1.46206       -2.69753       -0.04444
H         -2.90731       -3.62193       -0.42627
H         -2.14368       -2.66206       -1.67575
C          2.79602       -1.21543        0.39156
C          3.25662       -2.21321        1.21446
C          4.58637       -1.91818        1.51428
C          4.88601       -0.75064        0.85746
O          3.79657       -0.30908        0.16409
H          2.68776       -3.05316        1.57696
H          5.24758       -2.49260        2.14233
H          5.84093       -0.24011        0.87754
C          0.73963       -2.72432       -1.00729
C          0.66182       -3.88136       -0.27178
C          0.36101       -4.91255       -1.16266
C          0.26823       -4.34010       -2.40755
O          0.49441       -2.99558       -2.32567
H          0.78677       -3.96486        0.79579
H          0.22676       -5.95413       -0.92050
H          0.04594       -4.86349       -3.32920
Fe         1.28930        2.15393       -0.90621
C          2.98354        2.83692        0.05423
C          2.19457        2.01166        0.94750
C          0.88602        2.61421        1.07428
C          0.85431        3.80694        0.24915
C          2.15292        3.94401       -0.38456
H          4.02282        2.65682       -0.22950
H          2.52796        1.10047        1.44735
H          0.09503        2.25306        1.73364
H          0.02342        4.51060        0.16347
H          2.46123        4.75402       -1.04949
