111
-148.55580164
P         -1.63933        2.79719       -0.07469
P         -0.49840       -0.09169        0.53635
C         -1.64531        2.16319        1.62638
C         -1.21262        0.87814        1.87861
C         -0.49862        4.24063       -0.24986
C          0.66723        3.88980       -1.15016
C         -2.05657        2.96679        2.67029
H         -2.36125        3.98140        2.47190
C         -2.05444        2.47149        3.96293
H         -2.37889        3.09741        4.77815
C         -1.63185        1.17925        4.21053
H         -1.62504        0.79626        5.21771
C         -1.19978        0.38257        3.16528
H         -0.83509       -0.61692        3.34350
Pd        -1.26871        0.93751       -1.38305
Cl        -1.80837        2.14709       -3.18937
Cl        -0.81828       -0.99398       -2.44563
C         -1.41206        5.35279       -0.80438
C         -3.23871        3.57933       -0.58038
H          1.34295        4.73859       -1.27939
H          1.24509        3.05485       -0.74858
H          0.31344        3.59308       -2.13960
H         -1.26795        5.41523       -1.89172
H         -1.10366        6.33319       -0.41106
H         -3.39581        3.28414       -1.62640
C         -2.91398        5.08190       -0.50193
C         -4.40380        3.12791        0.27452
H         -0.15777        4.48539        0.76465
H         -3.16001        5.44685        0.50475
H         -3.56201        5.64923       -1.18750
H         -4.52140        2.04229        0.24125
H         -4.25829        3.40874        1.31805
H         -5.34058        3.58072       -0.05818
C         -0.99797       -4.60518        0.82119
C          0.22714       -4.00728        1.21282
C          0.34674       -2.63115        1.11102
C         -0.71159       -1.85744        0.71182
C         -1.93024       -2.41937        0.43672
C         -2.11819       -3.78981        0.51707
O         -1.09041       -6.01706        0.69661
C          1.43085       -4.82830        1.70128
H          1.28140       -2.14217        1.32499
H         -2.73271       -1.76860        0.13369
C         -3.51159       -4.36943        0.22756
C          3.79551        1.26648       -0.12507
C          3.24817        0.23871       -0.93528
C          1.93880       -0.14765       -0.70625
C          1.21829        0.37789        0.33256
C          1.77566        1.29721        1.18211
C          3.07638        1.73680        1.00368
O          5.04034        1.85738       -0.46925
C          4.02545       -0.42545       -2.08149
H          1.44033       -0.83438       -1.36823
H          1.16884        1.68858        1.97929
C          3.66888        2.74343        2.00198
C          0.97282       -6.08709        2.46004
C          2.30029       -5.22166        0.49745
C          2.29402       -4.00109        2.68114
C         -3.75581       -5.66232        1.02696
C         -4.61489       -3.37022        0.64407
C         -3.64185       -4.64319       -1.27863
C         -0.75593       -6.50703       -0.59601
H          0.42313       -6.76398        1.81083
H          1.82527       -6.63505        2.86073
H          0.32116       -5.81842        3.29077
H          2.65087       -4.33487       -0.02941
H          3.17236       -5.79264        0.81514
H          1.74210       -5.82768       -0.21183
H          1.68392       -3.59610        3.48813
H          3.07202       -4.61968        3.12801
H          2.79352       -3.17367        2.17922
H         -3.06624       -6.44891        0.73159
H         -3.62235       -5.48478        2.09355
H         -4.76737       -6.03552        0.86895
H         -4.48002       -3.05290        1.67779
H         -4.61786       -2.48473        0.01034
H         -5.60117       -3.82608        0.55991
H         -2.89844       -5.36194       -1.61465
H         -4.62755       -5.03994       -1.52016
H         -3.49666       -3.72665       -1.85003
H         -0.47566       -5.68326       -1.25381
H          0.07400       -7.20909       -0.51747
H         -1.60931       -7.03632       -1.01947
C          4.93004        2.95957       -1.36167
C          5.53595       -0.45956       -1.78677
C          3.57158       -1.89208       -2.26287
C          3.75397        0.33886       -3.38613
C          5.18731        2.54169        2.15492
C          3.37004        4.17264        1.52431
C          3.04451        2.55424        3.40334
H          5.95127        0.54267       -1.72071
H          5.73058       -0.96406       -0.84092
H          6.07637       -0.98889       -2.57114
H          4.20126       -2.40531       -2.98921
H          3.63687       -2.43477       -1.32047
H          2.54702       -1.95736       -2.62559
H          4.28167       -0.11737       -4.22319
H          2.68899        0.33865       -3.61760
H          4.07509        1.37508       -3.31027
H          5.41030        1.51750        2.45205
H          5.70951        2.73946        1.22208
H          5.59761        3.21133        2.91038
H          2.29551        4.33979        1.45828
H          3.78301        4.90885        2.21340
H          3.79519        4.35747        0.54085
H          1.99275        2.83664        3.41800
H          3.55228        3.17640        4.14002
H          3.12652        1.51712        3.72752
H          3.88369        3.15340       -1.60059
H          5.36845        3.84584       -0.90323
H          5.47753        2.74521       -2.27929
