87
-129.18086018
P         -1.55120       -0.28806       -0.37583
P          1.66833        0.33749        0.34367
C         -1.14780        1.00691       -1.55386
C          1.53188       -0.69979       -1.13611
C         -0.03594        0.82678       -2.36562
C          0.28734        1.82256       -3.30891
C         -0.53000        2.93605       -3.41644
C         -1.63682        3.08962       -2.60690
C         -1.94371        2.11973       -1.67277
C          2.21008       -1.89172       -1.02433
C          2.13776       -2.83678       -2.02964
C          1.36241       -2.58866       -3.14074
C          0.65509       -1.40566       -3.26781
C          0.75147       -0.42882       -2.25807
Cl         0.92164       -0.60633        3.41823
Cl        -1.65415       -2.16467        2.21927
H         -2.25894        3.96453       -2.70093
H         -2.81177        2.22478       -1.04372
H          2.78960       -2.08662       -0.13392
H          2.67248       -3.76778       -1.93697
H         -0.28729        3.69177       -4.14408
H          1.28677       -3.32816       -3.91990
C         -2.55997       -4.04186       -2.72845
C         -1.65180       -4.12616       -1.68205
C         -1.36405       -2.97470       -0.95992
C         -1.97246       -1.78247       -1.27507
C         -2.87716       -1.70805       -2.30803
C         -3.17464       -2.84427       -3.03763
H         -2.78040       -4.92532       -3.30306
C         -0.95927       -5.40499       -1.36768
H         -0.65289       -3.01398       -0.15239
H         -3.33396       -0.76012       -2.54603
H         -3.87887       -2.79234       -3.85170
C         -5.08504        1.02650        2.18451
C         -5.16149       -0.14842        1.46286
C         -4.09592       -0.54621        0.67765
C         -2.96379        0.23183        0.61902
C         -2.88473        1.39929        1.34098
C         -3.94671        1.81922        2.13099
H         -5.91188        1.33507        2.80121
H         -6.04823       -0.75857        1.51591
H         -4.13709       -1.46736        0.11976
H         -1.99082        1.99527        1.28976
C         -3.83997        3.07846        2.91706
C          6.03270        0.24452        1.62977
C          5.69293        0.57865        0.33347
C          4.36370        0.60088       -0.04755
C          3.38740        0.29070        0.87061
C          3.72542       -0.04078        2.16048
C          5.05448       -0.07749        2.56011
H          7.06645        0.23224        1.93076
H          6.46193        0.82305       -0.38091
H          4.08190        0.85463       -1.05753
H          2.94651       -0.27483        2.86388
C          5.41472       -0.41365        3.96460
C          0.37527        4.69612        0.27311
C         -0.03704        3.86238        1.29338
C          0.37060        2.54246        1.30768
C          1.16263        2.06106        0.29088
C          1.60412        2.89760       -0.70672
C          1.21059        4.23105       -0.73286
H          0.06065        5.72573        0.25646
H         -0.66268        4.24306        2.08411
H          0.10919        1.89217        2.12776
H          2.25075        2.51038       -1.47557
C          1.66509        5.14494       -1.81608
Pd        -0.12899       -0.70987        1.44436
C          1.48104        1.69820       -4.18992
C         -0.20742       -1.20639       -4.46608
H          2.03179        2.63872       -4.23564
H          2.16739        0.93293       -3.82534
H          1.18812        1.43249       -5.20634
H         -0.92749       -0.40208       -4.31242
H          0.39379       -0.96044       -5.34213
H         -0.77346       -2.11153       -4.69080
H         -1.57850       -6.26402       -1.62960
H         -0.02184       -5.48283       -1.92023
H         -0.72898       -5.47417       -0.30353
H         -4.80117        3.36216        3.34774
H         -3.12634        2.96418        3.73431
H         -3.50137        3.90247        2.28715
H          4.66767       -1.06837        4.41574
H          6.37667       -0.92593        4.01265
H          5.48186        0.48895        4.57348
H          2.33274        4.63559       -2.51223
H          0.81537        5.52445       -2.38534
H          2.20313        5.99943       -1.40323
