171
-217.84405742
P         -1.67249        0.38916       -0.37558
P          1.62026       -0.38258       -0.29108
C         -0.90332        1.35416       -1.67758
C          0.91808       -1.35189       -1.62569
C         -0.06361        0.73908       -2.60005
C          0.60195        1.54207       -3.54661
C          0.37667        2.90863       -3.55448
C         -0.48260        3.49402       -2.64878
C         -1.11691        2.71063       -1.70514
C          1.13986       -2.70723       -1.64204
C          0.56817       -3.49159       -2.62392
C         -0.23762       -2.90810       -3.57871
C         -0.47312       -1.54273       -3.57830
C          0.13007       -0.73889       -2.59286
Cl         1.50278        0.47571        2.82989
Cl        -1.63501       -0.41079        2.83355
C         -1.33567       -0.94226       -4.63159
C          1.54919        0.95556       -4.53449
H         -0.65382        4.55785       -2.67131
H         -1.78398        3.15991       -0.98753
H          1.76524       -3.15383       -0.88616
H          0.74939       -4.55388       -2.64061
H          0.88789        3.51664       -4.28179
H         -0.69369       -3.51682       -4.34113
C         -3.98016       -3.20652       -1.84881
C         -2.94213       -3.39786       -0.94509
C         -2.24162       -2.27870       -0.51313
C         -2.56412       -1.03330       -0.99049
C         -3.58706       -0.86032       -1.89013
C         -4.32519       -1.95046       -2.33487
H         -4.54102       -4.06479       -2.16723
H         -1.44270       -2.36600        0.20288
H         -3.82086        0.13469       -2.23109
C         -4.29718        2.78969        2.44135
C         -4.85633        1.72208        1.75048
C         -4.04383        1.02298        0.86632
C         -2.73459        1.39218        0.67869
C         -2.19971        2.45060        1.37099
C         -2.97023        3.16727        2.27680
H         -4.91365        3.32549        3.13822
H         -4.41952        0.16690        0.33477
H         -1.16228        2.70082        1.22578
C          4.32095       -2.84337        2.40460
C          2.97049       -3.16764        2.33508
C          2.16616       -2.42678        1.47926
C          2.69091       -1.39106        0.74725
C          4.02281       -1.07483        0.84146
C          4.86918       -1.79893        1.66897
H          4.95930       -3.41319        3.05171
H          1.11606       -2.64946        1.39316
H          4.40663       -0.24623        0.27272
C          3.98793        3.20321       -1.68277
C          2.94378        3.40247       -0.78836
C          2.21772        2.29079       -0.37926
C          2.51914        1.04785       -0.87626
C          3.54184        0.86871       -1.77500
C          4.30615        1.95137       -2.19396
H          4.58584        4.04720       -1.97320
H          1.42023        2.38009        0.33785
H          3.74598       -0.12702       -2.13115
Pd        -0.06262       -0.01906        1.28092
C         -2.38207       -5.75585       -1.60817
C         -2.63043       -4.80621       -0.42117
C         -3.82568       -5.31035        0.40676
C         -1.37603       -4.81053        0.47332
H         -1.56819       -5.38780       -2.23152
H         -2.11538       -6.75348       -1.25971
H         -3.26718       -5.85011       -2.23580
H         -3.63218       -6.30579        0.80604
H         -4.02162       -4.64176        1.24490
H         -4.73029       -5.36171       -0.19830
H         -1.14604       -5.82050        0.81227
H         -0.51018       -4.43671       -0.07189
H         -1.52143       -4.19214        1.35874
C         -6.55352       -0.83622       -2.59303
C         -5.51058       -1.73014       -3.28761
C         -6.18780       -3.05948       -3.67374
C         -5.02300       -1.04418       -4.57632
H         -6.13348        0.13723       -2.34245
H         -7.41742       -0.67086       -3.23656
H         -6.90375       -1.30116       -1.67179
H         -5.48495       -3.72727       -4.17170
H         -6.58632       -3.56722       -2.79559
H         -7.01850       -2.88539       -4.35761
H         -5.85527       -0.85236       -5.25338
H         -4.54244       -0.09042       -4.36221
H         -4.30671       -1.67555       -5.10005
C         -7.23776        2.51919        1.73900
C         -6.31356        1.31903        2.01692
C         -6.45363        0.88163        3.48618
C         -6.75276        0.15037        1.11414
H         -7.12674        2.85945        0.70956
H         -8.28250        2.25060        1.89469
H         -7.00963        3.35789        2.39547
H         -7.47427        0.56850        3.70525
H         -5.78895        0.04539        3.70235
H         -6.19969        1.69400        4.16614
H         -7.79272       -0.11591        1.30247
H         -6.66575        0.42124        0.06284
H         -6.14766       -0.73777        1.29548
C         -3.27999        4.86550        4.14889
C         -2.33367        4.32337        3.06030
C         -2.00105        5.46451        2.08399
C         -1.04537        3.82691        3.74670
H         -2.79806        5.65964        4.71905
H         -4.18736        5.28132        3.71149
H         -3.56142        4.07875        4.84866
H         -1.33470        5.12168        1.29459
H         -2.90701        5.84285        1.61084
H         -1.51623        6.29325        2.59965
H         -0.30608        3.49416        3.02022
H         -0.59031        4.61790        4.34232
H         -1.26149        2.98740        4.40707
C          1.09442       -3.79088        3.88650
C          2.34801       -4.30847        3.15221
C          3.32963       -4.85721        4.20569
C          1.95755       -5.44939        2.19747
H          1.34401       -2.93940        4.51914
H          0.32260       -3.47133        3.18802
H          0.66420       -4.56738        4.51858
H          4.20688       -5.30064        3.73533
H          3.65980       -4.06718        4.88001
H          2.85608       -5.63206        4.80849
H          2.83570       -5.83922        1.68302
H          1.48877       -6.27091        2.73887
H          1.25730       -5.10116        1.44012
C          6.98329       -1.58137        0.34262
C          6.35365       -1.41360        1.73791
C          7.12756       -2.29581        2.73584
C          6.47595        0.05514        2.18704
H          6.49133       -0.94439       -0.39132
H          8.04102       -1.31916        0.35684
H          6.89475       -2.61269        0.00167
H          6.71880       -2.20063        3.74164
H          7.08956       -3.34514        2.44398
H          8.17680       -2.00356        2.77701
H          7.52124        0.35162        2.27193
H          5.99638        0.72906        1.47804
H          6.00281        0.20059        3.15789
C          3.84171        5.27577        0.60843
C          2.65365        4.80994       -0.25137
C          1.38040        4.82831        0.61433
C          2.45061        5.78054       -1.43017
H          3.66193        6.26990        1.01730
H          4.00476        4.59175        1.44114
H          4.75990        5.31459        0.02320
H          1.49765        4.20104        1.49742
H          1.15794        5.83904        0.95607
H          0.52276        4.47082        0.04544
H          2.20075        6.77964       -1.07355
H          3.34956        5.86177       -2.03968
H          1.64014        5.43983       -2.07342
C          5.42106        2.78083       -4.29547
C          5.51769        1.78639       -3.12236
C          5.59734        0.36030       -3.70197
C          6.79982        2.06289       -2.31650
H          4.50159        2.62880       -4.85924
H          5.43351        3.81263       -3.94720
H          6.25906        2.65482       -4.98086
H          5.73736       -0.37871       -2.91354
H          4.69092        0.10993       -4.25262
H          6.43873        0.26843       -4.38865
H          6.80316        3.07805       -1.92071
H          6.88113        1.37671       -1.47380
H          7.68660        1.94170       -2.93833
H         -2.05868       -1.66850       -5.00393
H          2.48314        1.51766       -4.55165
H         -0.73876       -0.60280       -5.47884
H         -1.89095       -0.08670       -4.24454
H          1.12741        0.97651       -5.54033
H          1.79403       -0.07912       -4.29126
