59
-75.79954126
Cl         1.44373        0.15875        2.41342
P          1.52966       -0.10727       -0.72773
P         -1.66357       -0.12125       -0.87825
C          0.63726        0.35818       -2.28057
H          0.43775        1.43124       -2.25602
H          1.30322        0.17283       -3.12902
C         -0.64146       -0.42449       -2.38505
H         -0.43593       -1.49478       -2.45433
H         -1.22670       -0.15120       -3.26846
C          2.30588       -1.76211       -1.05204
H          1.64801       -2.24923       -1.78360
C          3.10934        0.84889       -0.57897
H          3.47791        0.69367        0.44135
C         -2.84432       -1.49041       -0.46077
H         -2.83347       -1.56607        0.63380
C         -2.88376        1.24619       -1.19175
H         -2.82993        1.45729       -2.26662
C          3.66078       -1.40363       -1.70763
H          4.45307       -2.01085       -1.25026
H          3.66106       -1.70518       -2.76597
C          4.01106        0.11414       -1.58756
H          3.89354        0.60027       -2.56700
H          5.07100        0.25203       -1.32380
C         -4.19677       -0.93813       -0.93878
H         -4.35562       -1.24336       -1.98239
H         -5.02029       -1.39443       -0.36828
C         -4.24000        0.60861       -0.83659
H         -4.50530        0.89598        0.19013
H         -5.03703        1.02253       -1.47265
C          2.42054       -2.63266        0.20187
H          2.71008       -3.64968       -0.09797
H          1.42641       -2.73692        0.65586
C          2.94480        2.34283       -0.83755
H          3.93302        2.78545       -1.02540
H          2.38526        2.48649       -1.77022
C         -2.47096       -2.83396       -1.07513
H         -3.30849       -3.53355       -0.94574
H         -2.36497       -2.71195       -2.16073
C         -2.59219        2.51468       -0.39601
H         -3.45931        3.18612       -0.46648
H         -2.51621        2.25475        0.66743
C          3.39699       -2.12255        1.25138
H          3.42302       -2.77012        2.13089
H          3.12383       -1.12681        1.59651
H          4.41618       -2.06090        0.86793
C          2.26695        3.06804        0.31531
H          2.86610        3.00617        1.22577
H          1.29852        2.62643        0.54941
H          2.10508        4.12638        0.09882
C         -1.20619       -3.42304       -0.47441
H         -0.36642       -2.73884       -0.58931
H         -0.92820       -4.37019       -0.94225
H         -1.32406       -3.60483        0.59562
C         -1.34016        3.24240       -0.85306
H         -0.45973        2.61151       -0.74297
H         -1.40641        3.52338       -1.90583
H         -1.16179        4.15417       -0.27833
Cl        -1.86429        0.48977        2.27557
Pd        -0.16145        0.19006        0.85243
