111
-148.55159176
P         -2.16182        2.54033        0.26358
P         -0.26075       -0.00848        0.53010
C         -1.72086        1.90102        1.90020
C         -0.90724        0.79452        2.01121
C         -1.84267        4.36115        0.18681
C         -0.98308        4.70890       -1.00903
C         -2.15596        2.55302        3.03623
H         -2.77129        3.43287        2.94188
C         -1.78187        2.08779        4.28504
H         -2.12405        2.59495        5.17236
C         -0.95847        0.98401        4.39406
H         -0.65510        0.62925        5.36531
C         -0.51108        0.34252        3.25298
H          0.16507       -0.49549        3.32162
Pd        -1.05051        1.22827       -1.27143
Cl        -2.21905        2.27504       -2.87578
Cl         0.28778        0.03615       -2.62637
C         -3.26274        4.96105        0.13125
C         -3.97689        2.50778       -0.10101
H         -0.02980        4.17656       -0.98308
H         -1.48696        4.43203       -1.93663
H         -0.77197        5.77994       -1.05470
H         -3.24132        5.90230       -0.43729
H         -3.59409        5.23460        1.14376
H         -4.10303        1.83526       -0.96083
C         -4.28276        3.96802       -0.49329
C         -4.77884        2.00308        1.07945
H         -1.33083        4.63212        1.12040
H         -5.30847        4.22314       -0.18966
H         -4.26384        4.07067       -1.58830
H         -5.84329        1.93837        0.84184
H         -4.44149        1.01264        1.39412
H         -4.67543        2.67414        1.93323
C         -1.19192       -4.47157        0.22056
C         -0.52973       -3.79683       -0.83795
C         -0.30652       -2.43771       -0.70542
C         -0.62910       -1.76423        0.44330
C         -1.16605       -2.43720        1.51061
C         -1.42101       -3.79750        1.44938
O         -1.69153       -5.78454        0.02300
C         -0.03271       -4.48155       -2.12263
H          0.10688       -1.87352       -1.52289
H         -1.40232       -1.88420        2.40187
C         -1.92059       -4.49454        2.72693
C          4.13331        1.06144        0.05248
C          3.76002       -0.30756        0.06533
C          2.41864       -0.62048        0.20612
C          1.48409        0.36078        0.40367
C          1.85172        1.67768        0.50145
C          3.17594        2.06011        0.36682
O          5.45333        1.43670       -0.31332
C          4.77391       -1.44831       -0.11363
H          2.08230       -1.64007        0.14648
H          1.07852        2.40785        0.67145
C          3.54387        3.54363        0.52255
C          0.00014       -6.01427       -1.99515
C         -0.93909       -4.08042       -3.29822
C          1.41214       -4.02348       -2.42234
C         -1.07281       -4.02989        3.93229
C         -3.39108       -4.11923        2.97328
C         -1.78594       -6.02541        2.64923
C         -3.01045       -5.79904       -0.49772
H          0.58262       -6.31485       -1.12494
H         -1.00134       -6.42262       -1.88310
H          0.44571       -6.47239       -2.87785
H         -0.94388       -2.99941       -3.43457
H         -0.59511       -4.53386       -4.22739
H         -1.96617       -4.39830       -3.12988
H          2.06484       -4.23466       -1.57618
H          1.81207       -4.54376       -3.29222
H          1.46380       -2.95644       -2.63171
H         -1.20910       -2.96991        4.13981
H         -1.35032       -4.57393        4.83480
H         -0.01328       -4.20451        3.74717
H         -3.76255       -4.58043        3.88803
H         -3.50629       -3.04013        3.07078
H         -4.02441       -4.44763        2.15152
H         -0.76251       -6.30927        2.40659
H         -2.05311       -6.49208        3.59708
H         -2.43742       -6.44047        1.88393
H         -3.04069       -5.28060       -1.45460
H         -3.33065       -6.83181       -0.63686
H         -3.69037       -5.30147        0.19165
C          5.62738        1.64733       -1.70898
C          4.31234       -2.71081        0.64978
C          4.88991       -1.79132       -1.60663
C          6.15298       -1.06483        0.45302
C          2.57083        4.24783        1.49605
C          4.95888        3.70407        1.10701
C          3.45418        4.23646       -0.84566
H          4.10406       -2.47735        1.69357
H          3.41550       -3.14443        0.21090
H          5.08340       -3.48056        0.62625
H          5.59049       -2.61046       -1.76656
H          3.92259       -2.09025       -2.00916
H          5.23519       -0.93561       -2.18190
H          6.07068       -0.77775        1.50077
H          6.85087       -1.89886        0.38342
H          6.58680       -0.22797       -0.08817
H          2.90464        5.26295        1.70975
H          1.56733        4.32333        1.08035
H          2.51073        3.70920        2.44142
H          5.71301        3.29872        0.43694
H          5.19699        4.75418        1.27443
H          5.04224        3.18105        2.05909
H          3.68202        5.29872       -0.76134
H          2.45279        4.13760       -1.26327
H          4.15174        3.79916       -1.55563
H          4.68144        1.50998       -2.23457
H          5.99728        2.65783       -1.88203
H          6.36413        0.94457       -2.09751
