171
-217.84459256
P         -1.57482        0.38293       -0.37728
P          1.56998       -0.42724       -0.30700
C         -0.84836        1.30375       -1.73420
C          0.88410       -1.41241       -1.64235
C         -0.06128        0.65956       -2.68187
C          0.56189        1.43336       -3.68043
C          0.33921        2.79998       -3.71522
C         -0.47112        3.41366       -2.78350
C         -1.05617        2.66008       -1.78492
C          1.08399       -2.77132       -1.61712
C          0.51312       -3.57658       -2.58228
C         -0.27217       -3.01040       -3.56365
C         -0.48640       -1.64247       -3.60680
C          0.11926       -0.81799       -2.63937
Cl         1.49235        0.20373        2.94507
Cl        -1.72518       -0.54948        2.77743
C         -1.33701       -1.06810       -4.68421
C          1.45579        0.81612       -4.69859
H         -0.64349        4.47642       -2.83082
H         -1.67836        3.13084       -1.04060
H          1.69167       -3.20636       -0.84077
H          0.67712       -4.64164       -2.56405
H          0.81291        3.38569       -4.48499
H         -0.73037       -3.63482       -4.31203
C         -3.97942       -3.22746       -1.66174
C         -2.93641       -3.39674       -0.75988
C         -2.21040       -2.27273       -0.38792
C         -2.50378       -1.04602       -0.92853
C         -3.52289       -0.89878       -1.83793
C         -4.30086       -1.98968       -2.20701
H         -4.56243       -4.08767       -1.93132
H         -1.41258       -2.34283        0.33083
H         -3.72046        0.07725       -2.24900
C         -4.20629        2.99196        2.25427
C         -4.80266        2.01895        1.46204
C         -3.97941        1.25496        0.64627
C         -2.62169        1.45725        0.62891
C         -2.04977        2.42287        1.42176
C         -2.83311        3.20118        2.26489
H         -4.82054        3.60192        2.88935
H         -4.40146        0.48347        0.02734
H         -0.98159        2.54943        1.39519
C          4.42772       -2.82771        2.28163
C          3.08347       -3.18338        2.26523
C          2.22867       -2.46145        1.44285
C          2.69976       -1.41508        0.68985
C          4.02699       -1.06905        0.73059
C          4.92192       -1.77162        1.52473
H          5.10390       -3.38073        2.90444
H          1.18009       -2.70355        1.40472
H          4.36887       -0.23236        0.14713
C          3.85786        3.26552       -1.55757
C          2.86646        3.38751       -0.59128
C          2.14837        2.24865       -0.25220
C          2.41872        1.04862       -0.86058
C          3.40097        0.94278       -1.81449
C          4.14702        2.05724       -2.18034
H          4.44022        4.12763       -1.82264
H          1.38609        2.29072        0.50693
H          3.59255       -0.02250       -2.25181
Pd        -0.05428       -0.06802        1.34571
C         -2.43110       -5.79402       -1.31555
C         -2.64521       -4.78414       -0.17238
C         -3.83819       -5.22370        0.69441
C         -1.37817       -4.77020        0.70414
H         -2.17861       -6.77894       -0.92313
H         -3.32631       -5.90075       -1.92666
H         -1.61880       -5.47185       -1.96598
H         -3.65870       -6.20265        1.13851
H         -4.00889       -4.51187        1.50190
H         -4.75208       -5.28532        0.10445
H         -1.16005       -5.76751        1.08572
H         -0.51470       -4.43654        0.12980
H         -1.50002       -4.10981        1.56235
C         -4.97566       -1.38607       -4.55010
C         -5.49087       -1.79359       -3.15978
C         -6.40903       -0.68657       -2.60814
C         -6.32393       -3.08223       -3.30409
H         -5.80388       -1.21115       -5.23664
H         -4.38562       -0.47172       -4.49851
H         -4.35113       -2.17192       -4.97328
H         -7.29056       -0.56105       -3.23659
H         -6.74524       -0.93113       -1.60079
H         -5.89247        0.27127       -2.57012
H         -7.18169       -2.91685       -3.95597
H         -5.73238       -3.88705       -3.73995
H         -6.70232       -3.41372       -2.33720
C         -7.03404        2.57818        2.55429
C         -6.31706        1.76610        1.45830
C         -6.58854        0.26998        1.71171
C         -6.88859        2.17348        0.08945
H         -8.10146        2.35776        2.56264
H         -6.63810        2.33749        3.54079
H         -6.92276        3.64939        2.38799
H         -7.65898        0.06963        1.75373
H         -6.16733       -0.35285        0.92388
H         -6.14831       -0.04501        2.65754
H         -7.96233        1.99253        0.04336
H         -6.71461        3.23234       -0.10114
H         -6.41738        1.60972       -0.71386
C         -2.68882        3.96747        4.65192
C         -2.22692        4.24926        3.20926
C         -2.69240        5.64980        2.77475
C         -0.68708        4.21052        3.18660
H         -2.23823        4.67265        5.35009
H         -3.77029        4.05117        4.74936
H         -2.40136        2.96108        4.95588
H         -2.37895        5.85898        1.75199
H         -3.77789        5.73414        2.81576
H         -2.27136        6.41941        3.42146
H         -0.26991        4.92839        3.89260
H         -0.31558        3.22260        3.45890
H         -0.30714        4.46485        2.19918
C          2.09303       -5.47815        2.17406
C          2.51880       -4.33410        3.11004
C          1.29926       -3.83298        3.90985
C          3.56062       -4.87342        4.10910
H          1.66526       -6.30716        2.73754
H          1.34826       -5.13869        1.45625
H          2.94758       -5.85482        1.61226
H          1.57219       -2.98138        4.53261
H          0.48986       -3.51821        3.25299
H          0.90987       -4.61649        4.55949
H          3.12989       -5.65871        4.73022
H          4.41950       -5.30050        3.59197
H          3.91253       -4.08227        4.77099
C          6.97749       -1.48230        0.12096
C          6.39681       -1.34587        1.54075
C          7.23241       -2.21559        2.49908
C          6.49483        0.12148        2.00030
H          6.44258       -0.85035       -0.58684
H          8.02798       -1.19290        0.09885
H          6.90266       -2.51189       -0.22835
H          7.20896       -3.26327        2.19981
H          8.27472       -1.89687        2.50070
H          6.86245       -2.13866        3.52132
H          7.53372        0.44743        2.04698
H          5.96804        0.78771        1.31798
H          6.05669        0.24394        2.99057
C          2.70584        4.50440        1.64660
C          2.56236        4.70965        0.12623
C          1.12622        5.14582       -0.21185
C          3.52717        5.83121       -0.30402
H          2.49546        5.42697        2.18725
H          2.02228        3.74005        2.01270
H          3.71854        4.18936        1.89724
H          0.40747        4.36994        0.04656
H          0.85393        6.05339        0.32661
H          1.02947        5.34526       -1.27845
H          4.56077        5.56507       -0.08336
H          3.44209        6.03501       -1.37125
H          3.30364        6.75693        0.22617
C          5.41562        0.57333       -3.81483
C          5.31445        1.97156       -3.17400
C          6.62813        2.25987       -2.42398
C          5.12137        3.01002       -4.29537
H          5.60751       -0.19132       -3.06252
H          4.49857        0.31465       -4.34279
H          6.23312        0.53646       -4.53474
H          6.62249        3.25874       -1.98899
H          6.77471        1.54487       -1.61467
H          7.48435        2.19145       -3.09478
H          4.17667        2.85106       -4.81358
H          5.11913        4.02565       -3.90197
H          5.92348        2.94235       -5.03015
H         -1.80410       -0.13533       -4.36498
H          1.74170       -0.19872       -4.41903
H         -2.13197       -1.76064       -4.96103
H         -0.74900       -0.86462       -5.57983
H          2.37166        1.39662       -4.80990
H          0.96778        0.77544       -5.67330
