87
-129.18377597
P         -1.51395       -0.27065       -0.41543
P          1.71209        0.30882        0.20991
C         -1.09241        0.97331       -1.64130
C          1.52744       -0.79278       -1.21474
C         -0.00396        0.74264       -2.47259
C          0.33201        1.71239       -3.43818
C         -0.44566        2.85442       -3.54207
C         -1.52773        3.05937       -2.71088
C         -1.84875        2.11343       -1.75731
C          2.16177       -2.00388       -1.06465
C          2.05870       -2.97433       -2.04245
C          1.30017       -2.72942       -3.16591
C          0.63460       -1.52673       -3.32988
C          0.75544       -0.52850       -2.34381
Cl         0.87279       -0.22400        3.43363
Cl        -1.67744       -1.84632        2.36413
H         -2.11782        3.95656       -2.80135
H         -2.69423        2.26123       -1.10637
H          2.73413       -2.19217       -0.16848
H          2.55966       -3.92068       -1.92093
H         -0.18861        3.59379       -4.28148
H          1.20437       -3.48667       -3.92553
C         -2.43793       -4.18529       -2.52869
C         -1.59588       -4.19673       -1.42513
C         -1.34453       -2.99727       -0.77077
C         -1.89720       -1.82392       -1.22761
C         -2.72504       -1.81894       -2.32569
C         -3.00108       -3.00671       -2.97736
H         -2.65014       -5.11131       -3.03532
C         -0.99957       -5.46540       -0.92641
H         -0.71180       -2.98555        0.10028
H         -3.14257       -0.88614       -2.67130
H         -3.65000       -3.01054       -3.83773
C         -5.14199        1.09544        1.98327
C         -5.21200       -0.05406        1.22194
C         -4.11361       -0.46322        0.49010
C         -2.95737        0.28068        0.51855
C         -2.88546        1.42510        1.27830
C         -3.97602        1.84727        2.02835
H         -5.99637        1.41631        2.55452
H         -6.11955       -0.63492        1.20180
H         -4.15069       -1.36610       -0.09705
H         -1.97644        2.00032        1.28776
C         -3.89483        3.09080        2.84177
C          6.02889       -0.06502        1.61046
C          5.74324        0.15108        0.27674
C          4.42886        0.26492       -0.13767
C          3.41217        0.15739        0.78303
C          3.69720       -0.05559        2.11018
C          5.01037       -0.16402        2.54768
H          7.05103       -0.16004        1.93546
H          6.54288        0.22868       -0.44159
H          4.18978        0.42658       -1.17708
H          2.88862       -0.14080        2.81392
C          5.31412       -0.42186        3.98180
C          0.81347        4.73080       -0.33588
C          1.68093        4.09962       -1.20537
C          1.96575        2.75705       -1.04129
C          1.37186        2.05703       -0.01822
C          0.53827        2.69216        0.87388
C          0.24086        4.04130        0.72386
H          0.57943        5.77324       -0.46939
H          2.12804        4.64935       -2.01730
H          2.63555        2.24729       -1.71467
H          0.14968        2.14522        1.71621
C         -0.69277        4.72532        1.65861
Pd        -0.09916       -0.53833        1.44034
C          1.50507        1.54005       -4.33877
C         -0.20670       -1.32715       -4.54300
H          2.15034        0.72726       -4.00339
H          1.18409        1.31803       -5.35725
H          2.10891        2.44822       -4.36839
H          0.41192       -1.10571       -5.41347
H         -0.78765       -2.22366       -4.76409
H         -0.91185       -0.50600       -4.41080
H         -0.00841       -5.29208       -0.50450
H         -1.62404       -5.90682       -0.14853
H         -0.89416       -6.19525       -1.73033
H         -2.94877        3.14078        3.38256
H         -3.97079        3.97510        2.20759
H         -4.69833        3.13610        3.57817
H          4.50709       -0.06765        4.62482
H          5.44444       -1.48946        4.16400
H          6.22921        0.08731        4.28753
H         -0.73933        4.20801        2.61786
H         -0.37400        5.75069        1.85115
H         -1.70032        4.75852        1.24196
