87
-129.17697615
P         -1.72875       -0.37519        0.18852
P          1.49650        0.43406       -0.11697
C         -1.49862        0.93388       -1.04290
C          1.23662       -0.62557       -1.54585
C         -0.63821        0.88658       -2.13755
C         -0.50059        2.03514       -2.94099
C         -1.23732        3.16780       -2.64091
C         -2.08580        3.19690       -1.55632
C         -2.20630        2.07791       -0.75504
C          2.07592       -1.68317       -1.79646
C          1.88317       -2.46482       -2.91863
C          0.84599       -2.17982       -3.78291
C         -0.01401       -1.11990       -3.54549
C          0.19427       -0.31373       -2.40861
Cl         1.24448        1.80442        2.82545
Cl        -1.24270       -0.20711        3.43854
H         -2.64389        4.08973       -1.32683
H         -2.84965        2.09539        0.11241
H          2.88953       -1.89041       -1.12172
H          2.53963       -3.29623       -3.11650
H         -1.12876        4.04056       -3.26235
H          0.69214       -2.78913       -4.65729
C         -0.36106       -4.62939       -0.65576
C         -1.13351       -3.97461       -1.60481
C         -1.54818       -2.67361       -1.34182
C         -1.19205       -2.05342       -0.16770
C         -0.46653       -2.72815        0.78712
C         -0.03565       -4.01673        0.53794
H         -0.02755       -5.63341       -0.85599
C         -1.49335       -4.65218       -2.88016
H         -2.14464       -2.14080       -2.06264
H         -0.28075       -2.25852        1.74018
H          0.53948       -4.54677        1.27945
C         -6.18501       -0.53657        1.10147
C         -5.73697       -0.57219       -0.20447
C         -4.38063       -0.52516       -0.47020
C         -3.48568       -0.43855        0.57102
C         -3.93153       -0.40543        1.87024
C         -5.28851       -0.46066        2.15818
H         -7.24073       -0.56684        1.31101
H         -6.44281       -0.63424       -1.01647
H         -4.01472       -0.54639       -1.48487
H         -3.21571       -0.33555        2.66953
C         -5.76762       -0.39698        3.56593
C          4.87514       -1.25670        2.43023
C          4.96561        0.03029        1.93757
C          3.94732        0.54281        1.15614
C          2.84827       -0.23362        0.87374
C          2.75518       -1.51410        1.36641
C          3.77150       -2.04954        2.14678
H          5.66363       -1.65502        3.04573
H          5.82585        0.63758        2.16690
H          3.99906        1.54937        0.77423
H          1.88653       -2.10761        1.14161
C          3.64873       -3.42833        2.69324
C          2.61742        4.56093       -1.65448
C          1.75677        4.45035       -0.58025
C          1.42113        3.20227       -0.09208
C          1.94349        2.07724       -0.68479
C          2.80854        2.18293       -1.74916
C          3.15305        3.43081       -2.25668
H          2.88429        5.53255       -2.03399
H          1.35006        5.33554       -0.11943
H          0.76756        3.10059        0.75828
H          3.20945        1.28850       -2.19744
C          4.09722        3.55070       -3.40066
Pd        -0.05440        0.40937        1.64509
C          0.42967        2.06927       -4.10429
C         -1.13316       -0.85571       -4.49120
H          0.98534        3.00770       -4.12891
H          1.15860        1.25963       -4.05927
H         -0.11800        1.98014       -5.04318
H         -0.76267       -0.42189       -5.42075
H         -1.65943       -1.77838       -4.73956
H         -1.86235       -0.16644       -4.06367
H         -1.97273       -5.61314       -2.68815
H         -2.18395       -4.04821       -3.47020
H         -0.60509       -4.83402       -3.48671
H         -6.69112       -0.96346        3.69379
H         -5.02713       -0.81108        4.25182
H         -5.96034        0.63485        3.86281
H          3.25645       -4.11302        1.93976
H          4.61538       -3.81347        3.02065
H          2.97190       -3.44567        3.54865
H          4.07312        2.65729       -4.02647
H          3.84361        4.40366       -4.03186
H          5.11998        3.68554       -3.04603
