72
-98.09790755
Fe        -0.03534        2.80437       -0.01124
P          1.81882       -0.08351       -0.03883
P         -1.92883       -0.04925        0.01949
C          1.42277        1.56866        0.65048
C          0.41838        1.84792        1.66085
C          0.36706        3.28439        1.87833
C          1.34196        3.90310        0.99776
C          1.98309        2.84528        0.23408
C         -1.44298        1.55986       -0.71084
C         -2.02369        2.85799       -0.40874
C         -1.32720        3.85394       -1.20673
C         -0.35023        3.17176       -2.03630
C         -0.41507        1.75660       -1.71861
C          3.06207       -0.86357        1.09052
C          4.34350       -0.09729        0.72382
C          2.98628        0.16027       -1.46719
C          4.35585        0.34927       -0.77119
C         -3.37265       -0.66997       -0.96726
C         -4.53322        0.12421       -0.34559
C         -2.84799        0.21346        1.61755
C         -4.32274        0.37639        1.17413
H         -0.17480        1.09794        2.18304
H         -0.27689        3.80353        2.59295
H          1.55773        4.97177        0.92471
H          2.76372        2.98305       -0.51672
H         -2.83307        3.04534        0.30026
H          0.18737        0.96757       -2.17023
Cl         1.49795       -3.09363       -0.31061
Cl        -1.72925       -3.01103        0.07246
Pd        -0.06527       -1.49142       -0.05837
H          3.15587       -1.91692        0.80320
C          2.64741       -0.75045        2.55118
H          2.67100        1.07219       -1.98848
C          3.00071       -1.01581       -2.44061
H          5.23361       -0.70015        0.96082
H          4.41147        0.78690        1.37424
H          4.68588        1.39557       -0.85215
H          5.11270       -0.22798       -1.32087
H         -1.53502        4.92647       -1.21401
H          0.32028        3.63861       -2.76095
H          2.52057        0.31045        2.80398
H          3.85000       -0.89819       -3.12815
H         -3.48210       -1.73830       -0.74949
C         -3.22321       -0.44941       -2.46831
H         -2.46466        1.13989        2.06124
C         -2.67471       -0.95310        2.59123
H         -5.49096       -0.38573       -0.53305
H         -4.61004        1.08705       -0.87140
H         -4.70058        1.37091        1.45404
H         -4.93966       -0.33140        1.74491
H         -4.18487       -0.65673       -2.95798
H         -2.88551       -1.88643        2.05288
C          3.63541       -1.40681        3.50340
H          3.75729       -2.46693        3.27339
H          4.62223       -0.94617        3.43163
H          3.31328       -1.33089        4.54446
C          1.72031       -1.17491       -3.23975
H          1.48460       -0.26857       -3.80055
H          1.78337       -1.99794       -3.95531
H          0.87832       -1.38530       -2.58352
C         -2.13027       -1.29887       -3.09006
H         -2.04695       -1.14216       -4.16790
H         -1.16358       -1.06317       -2.64907
H         -2.30990       -2.36228       -2.92139
C         -1.31013       -1.02465        3.25449
H         -0.51693       -1.11844        2.51513
H         -1.10669       -0.12872        3.84394
H         -1.22704       -1.88199        3.92642
H          1.65346       -1.19867        2.67596
H          3.21215       -1.93334       -1.87614
H         -3.02911        0.61536       -2.65248
H         -3.45077       -0.88737        3.36672
