100
-131.97710113
C         -1.57918        3.87621       -1.39060
C         -2.31449        2.61003       -1.48002
C         -0.18710        3.58687       -1.41060
C          0.01691        2.12030       -1.55560
C          1.18730        1.56481       -2.29251
C         -1.36704        1.53437       -1.56326
C         -1.76514        0.14601       -2.03696
C         -0.84946       -0.46001       -3.08219
Cl         1.02726       -0.43742        2.75893
Cl        -1.76317       -1.61634        2.31562
C          3.27807        0.58799       -3.88159
C          2.54975        1.68343       -4.30264
C          2.98163       -0.00869       -2.66452
C          1.53030        2.16821       -3.52217
C          1.95097        0.45256       -1.88022
H         -3.39780        2.50765       -1.57210
H          0.61108        4.33159       -1.45157
H          0.09289       -0.77252       -2.63436
H         -1.29349       -1.33948       -3.55420
H         -0.62323        0.25753       -3.87433
H          4.08555        0.20946       -4.48672
H          2.78259        2.15648       -5.24292
H          3.58992       -0.82980       -2.32247
H          0.95481        3.01472       -3.85522
H         -2.02593        4.87353       -1.36707
P          1.82142       -0.28376       -0.23573
H         -2.76610        0.23453       -2.47669
P         -1.99614       -0.98789       -0.59811
H         -2.95434       -2.85734       -1.82148
C         -1.90080       -3.82321       -0.18387
C         -2.04698       -2.71869       -1.23651
C         -3.16028       -4.00087        0.66392
H         -3.33430        0.60588        0.51176
C         -4.84755       -0.42944       -0.60644
C         -3.55345       -0.42106        0.22166
H         -4.59529       -0.11682       -1.63398
C         -5.48972       -1.81497       -0.67597
H          3.55797       -1.91371       -0.59966
H          2.69361        0.60925        1.83774
C          3.60357        3.17169        1.35125
C          2.73264        2.26722        0.46065
C          2.95513        0.78503        0.78900
C          4.43684        0.42605        0.59735
C          5.34221        1.32254        1.46808
C          5.09322        2.81669        1.18273
H          3.31194        3.03627        2.40012
H          3.42206        4.23249        1.12855
H          2.99990        2.43559       -0.58996
H          1.66998        2.52534        0.53069
H          4.61234       -0.63372        0.82175
H          4.69733        0.55211       -0.46024
H          5.14141        1.11771        2.52704
H          6.40064        1.06838        1.31636
H          5.40718        3.04722        0.15689
H          5.71940        3.44712        1.82982
C          2.36533       -4.30590       -1.32012
C          1.75802       -2.89034       -1.24996
C          2.52236       -2.00946       -0.25449
C          2.54459       -2.66052        1.13768
C          3.16367       -4.07034        1.07960
C          2.40362       -4.95841        0.07538
H          3.38562       -4.24137       -1.71819
H          1.81288       -4.93381       -2.03289
H          0.71497       -2.95359       -0.92429
H          1.72935       -2.42033       -2.24230
H          3.06931       -2.01939        1.85840
H          1.51894       -2.73838        1.51511
H          4.21465       -3.99274        0.77484
H          3.17937       -4.53106        2.07724
H          1.37762       -5.11106        0.43299
H          2.84911       -5.96201        0.02555
H         -1.07716       -3.52699        0.49058
C         -1.51925       -5.15183       -0.84481
H         -3.69898       -0.97167        1.14934
C         -5.84583        0.58680       -0.04072
H         -1.22379       -2.79500       -1.94755
H         -3.44136       -3.07841        1.16870
H         -3.01697       -4.76350        1.43106
H         -4.00133       -4.31657        0.04670
H         -1.36279       -5.93725       -0.10373
H         -2.31060       -5.48602       -1.51648
H         -0.60676       -5.06184       -1.43525
H         -4.84028       -2.54422       -1.15529
H         -5.72244       -2.18189        0.32413
H         -6.42418       -1.79089       -1.23910
H         -6.76786        0.61018       -0.62368
H         -6.11143        0.33176        0.98568
H         -5.43135        1.59610       -0.03166
Fe        -1.10421        2.65253        0.15123
C         -2.56265        2.91119        1.56780
C         -1.77281        4.12231        1.44193
C         -0.38438        3.76881        1.67927
C         -0.32667        2.36535        2.03727
C         -1.66931        1.83163        1.93879
H         -3.64902        2.84392        1.47306
H         -2.15366        5.11917        1.20810
H          0.45794        4.46528        1.68743
H          0.55058        1.80640        2.36432
H         -1.95153        0.80839        2.19644
Pd        -0.18858       -0.82304        0.88235
