171
-217.84325499
P         -1.64178        0.37051       -0.43085
P          1.60237       -0.40501       -0.31274
C         -0.88469        1.30396       -1.76313
C          0.92729       -1.39730       -1.64519
C         -0.05493        0.66431       -2.67748
C          0.59661        1.43988       -3.65607
C          0.36668        2.80477       -3.70277
C         -0.48402        3.41423       -2.80513
C         -1.10393        2.65815       -1.83005
C          1.15561       -2.75181       -1.62865
C          0.59267       -3.56270       -2.59394
C         -0.21539       -3.00706       -3.56308
C         -0.45934       -1.64369       -3.59525
C          0.14084       -0.81215       -2.63085
Cl         1.40605        0.32932        2.91192
Cl        -1.67332       -0.48809        2.79186
C         -1.33453       -1.07941       -4.65815
C          1.52181        0.82260       -4.64591
H         -0.66170        4.47576       -2.86109
H         -1.76634        3.12687       -1.12071
H          1.77732       -3.17777       -0.85795
H          0.77936       -4.62413       -2.58431
H          0.86429        3.39186       -4.45623
H         -0.66827       -3.63646       -4.31051
C         -3.97911       -3.24173       -1.81419
C         -2.93273       -3.42086       -0.91757
C         -2.22392       -2.29689       -0.51291
C         -2.54732       -1.05883       -1.00829
C         -3.57872       -0.89785       -1.90032
C         -4.32464       -1.99304       -2.31878
H         -4.54579       -4.10353       -2.11216
H         -1.41739       -2.37472        0.19557
H         -3.81249        0.09194       -2.25611
C         -4.22563        2.85980        2.34738
C         -4.79448        1.76769        1.70396
C         -3.99629        1.03901        0.83086
C         -2.69107        1.40281        0.60936
C         -2.14594        2.48401        1.25708
C         -2.90115        3.23102        2.15097
H         -4.83290        3.42239        3.03106
H         -4.37961        0.16551        0.33423
H         -1.11295        2.73078        1.08087
C          4.35948       -2.78484        2.39460
C          3.01285       -3.12888        2.34505
C          2.18901       -2.41383        1.48594
C          2.69215       -1.38427        0.73097
C          4.02077       -1.04940        0.80290
C          4.88581       -1.74700        1.63379
H          5.01195       -3.33286        3.04648
H          1.14014       -2.64867        1.41872
H          4.38633       -0.22607        0.21441
C          3.93060        3.26515       -1.54696
C          2.93281        3.39470       -0.58810
C          2.20496        2.26100       -0.25296
C          2.46909        1.05984       -0.86138
C          3.45857        0.94549       -1.80651
C          4.21563        2.05431       -2.16696
H          4.52134        4.12286       -1.80779
H          1.44396        2.30662        0.50753
H          3.64694       -0.02185       -2.24059
Pd        -0.08141       -0.01492        1.26128
C         -3.81132       -5.31032        0.46957
C         -2.61961       -4.82070       -0.37210
C         -1.36110       -4.81187        0.51690
C         -2.37762       -5.78928       -1.54493
H         -3.61648       -6.29911        0.88445
H         -4.00292       -4.62779        1.29740
H         -4.71881       -5.37123       -0.13025
H         -1.13185       -5.81617        0.87277
H         -0.49659       -4.45011       -0.03846
H         -1.50101       -4.17733        1.39177
H         -2.11157       -6.78189       -1.18195
H         -3.26535       -5.89130       -2.16766
H         -1.56540       -5.43261       -2.17704
C         -5.04549       -1.11294       -4.56383
C         -5.51943       -1.78433       -3.26222
C         -6.55544       -0.88280       -2.56702
C         -6.19956       -3.11839       -3.62628
H         -4.56073       -0.15781       -4.36579
H         -4.33651       -1.75100       -5.08934
H         -5.88525       -0.92691       -5.23321
H         -7.42579       -0.72450       -3.20359
H         -6.89630       -1.33740       -1.63713
H         -6.13285        0.09326       -2.33123
H         -6.59116       -3.61513       -2.73877
H         -7.03565       -2.95292       -4.30569
H         -5.50049       -3.79231       -4.12131
C         -6.36778        0.99922        3.49423
C         -6.24732        1.37425        2.00605
C         -6.69570        0.16735        1.15964
C         -7.17694        2.56041        1.68934
H         -6.10728        1.84003        4.13604
H         -7.38483        0.69375        3.73928
H         -5.69843        0.17410        3.73704
H         -6.08482       -0.71052        1.36939
H         -7.73186       -0.09371        1.37439
H         -6.62515        0.39344        0.09656
H         -8.21906        2.29797        1.87093
H         -6.94073        3.42684        2.30576
H         -7.08049        2.85606        0.64476
C         -2.08995        5.57685        1.85910
C         -2.26380        4.42943        2.86829
C         -0.88972        4.02309        3.43886
C         -3.13880        4.92223        4.03738
H         -1.60555        6.43643        2.32196
H         -1.48350        5.26222        1.01137
H         -3.05644        5.89943        1.47230
H         -0.98699        3.16267        4.10058
H         -0.18975        3.75865        2.64862
H         -0.44661        4.83966        4.00849
H         -2.64434        5.73034        4.57633
H         -4.09507        5.30543        3.68242
H         -3.33005        4.11709        4.74665
C          1.99184       -5.41052        2.26452
C          2.41156       -4.25830        3.19316
C          1.17991       -3.72739        3.95436
C          3.42092       -4.79650        4.22546
H          1.54094       -6.22568        2.83016
H          1.26740       -5.07187        1.52578
H          2.85358       -5.80616        1.72727
H          1.44929       -2.86936        4.56978
H          0.39139       -3.41256        3.27244
H          0.76375       -4.49464        4.60679
H          2.96461       -5.56727        4.84650
H          4.28677       -5.24166        3.73592
H          3.76649       -4.00059        4.88497
C          6.98066       -1.49042        0.28210
C          6.36362       -1.33448        1.68460
C          7.16544       -2.20203        2.67323
C          6.46266        0.13654        2.13181
H          6.47282       -0.85877       -0.44575
H          8.03469       -1.21333        0.28596
H          6.90326       -2.52226       -0.05998
H          6.77086       -2.10971        3.68493
H          7.13804       -3.25271        2.38498
H          8.21076       -1.89425        2.69768
H          7.50280        0.45429        2.20150
H          5.95884        0.79993        1.42963
H          6.00069        0.27283        3.10937
C          1.18282        5.13070       -0.15756
C          2.63553        4.71687        0.13183
C          3.56890        5.84883       -0.33790
C          2.82938        4.52127        1.64759
H          0.92561        6.05077        0.36687
H          1.03712        5.29749       -1.22424
H          0.48586        4.35587        0.15668
H          3.34171        6.77816        0.18438
H          4.61231        5.60503       -0.13877
H          3.45391        6.03439       -1.40568
H          3.85284        4.21877        1.86813
H          2.62465        5.44400        2.19014
H          2.16529        3.75123        2.03727
C          5.20694        2.99410       -4.27971
C          5.38859        1.95928       -3.15315
C          5.48676        0.55804       -3.78787
C          6.69918        2.24398       -2.39646
H          6.01473        2.92189       -5.00780
H          4.26613        2.83528       -4.80503
H          5.20370        4.01110       -3.88987
H          5.66919       -0.20458       -3.03107
H          4.57204        0.30241       -4.32144
H          6.30910        0.51393       -4.50182
H          7.55899        2.16854       -3.06190
H          6.69610        3.24460       -1.96548
H          6.83723        1.53132       -1.58354
H         -0.75584       -0.82286       -5.54618
H          2.42518        1.42262       -4.75616
H         -1.84419       -0.17863       -4.31310
H         -2.09716       -1.79986       -4.95499
H          1.05040        0.74736       -5.62670
H          1.82720       -0.17852       -4.33883
